 Abaqus/Standard 3DEXPERIENCE R2017x                  DATE 05-Jun-2023 TIME 12:22:22
 SUMMARY OF JOB INFORMATION:
 STEP  INC ATT SEVERE EQUIL TOTAL  TOTAL      STEP       INC OF       DOF    IF
               DISCON ITERS ITERS  TIME/    TIME/LPF    TIME/LPF    MONITOR RIKS
               ITERS               FREQ
   1     1   1U    0     5     5  0.000      0.000      1.000e-006
   1     1   2     0     6     6  2.50e-007  2.50e-007  2.500e-007
   1     2   1     0     4     4  5.00e-007  5.00e-007  2.500e-007
   1     3   1     0     4     4  7.50e-007  7.50e-007  2.500e-007
   1     4   1     0     4     4  1.13e-006  1.13e-006  3.750e-007
   1     5   1     0     4     4  1.69e-006  1.69e-006  5.625e-007
   1     6   1     0     4     4  2.53e-006  2.53e-006  8.437e-007
   1     7   1     0     4     4  3.80e-006  3.80e-006  1.266e-006
   1     8   1     0     4     4  5.70e-006  5.70e-006  1.898e-006
   1     9   1     0     4     4  8.54e-006  8.54e-006  2.848e-006
   1    10   1     0     4     4  1.28e-005  1.28e-005  4.271e-006
   1    11   1     0     4     4  1.92e-005  1.92e-005  6.407e-006
   1    12   1     0     4     4  2.88e-005  2.88e-005  9.611e-006
   1    13   1     0     4     4  4.32e-005  4.32e-005  1.442e-005
   1    14   1     0     4     4  6.49e-005  6.49e-005  2.162e-005
   1    15   1     0     4     4  9.73e-005  9.73e-005  3.244e-005
   1    16   1     0     4     4  0.000146   0.000146   4.865e-005
   1    17   1     0     4     4  0.000219   0.000219   7.298e-005
   1    18   1     0     4     4  0.000328   0.000328   0.0001095 
   1    19   1     0     4     4  0.000493   0.000493   0.0001642 
   1    20   1     0     4     4  0.000739   0.000739   0.0002463 
   1    21   1     0     4     4  0.00111    0.00111    0.0003695 
   1    22   1     0     4     4  0.00166    0.00166    0.0005542 
   1    23   1     0     3     3  0.00249    0.00249    0.0008313 
   1    24   1     0     3     3  0.00374    0.00374    0.001247  
   1    25   1     0     3     3  0.00561    0.00561    0.001870  
   1    26   1     0     3     3  0.00842    0.00842    0.002806  
   1    27   1     0     3     3  0.0126     0.0126     0.004209  
   1    28   1     0     3     3  0.0189     0.0189     0.006313  
   1    29   1     0     3     3  0.0284     0.0284     0.009469  
   1    30   1     0     3     3  0.0426     0.0426     0.01420   
   1    31   1     0     3     3  0.0639     0.0639     0.02131   
   1    32   1     0     1     1  0.0959     0.0959     0.03196   
   1    33   1     0     1     1  0.144      0.144      0.04794   
   1    34   1     0     1     1  0.216      0.216      0.07191   
   1    35   1     0     1     1  0.324      0.324      0.1079    
   1    36   1     0     1     1  0.485      0.485      0.1618    
   1    37   1     0     2     2  0.728      0.728      0.2427    
   1    38   1     0     1     1  1.00       1.00       0.2719    
   2     1   1     0     2     2  1.00       0.00100    0.001000  
   2     2   1     0     1     1  1.00       0.00200    0.001000  
   2     3   1     0     1     1  1.00       0.00350    0.001500  
   2     4   1     0     1     1  1.01       0.00575    0.002250  
   2     5   1     0     1     1  1.01       0.00913    0.003375  
   2     6   1     0     1     1  1.01       0.0142     0.005063  
   2     7   1     0     1     1  1.02       0.0218     0.007594  
   2     8   1     0     1     1  1.03       0.0332     0.01139   
   2     9   1     0     1     1  1.05       0.0503     0.01709   
   2    10   1     0     2     2  1.08       0.0759     0.02563   
   2    11   1     0     2     2  1.11       0.114      0.03844   
   2    12   1     0     2     2  1.17       0.172      0.05767   
   2    13   1     0     2     2  1.26       0.258      0.08650   
   2    14   1     0     2     2  1.39       0.388      0.1297    
   2    15   1     0     2     2  1.58       0.583      0.1946    
   2    16   1     0     2     2  1.87       0.875      0.2919    
   2    17   1     0     1     1  2.00       1.00       0.1252    
                          
 THE ANALYSIS HAS COMPLETED SUCCESSFULLY
