1

   Abaqus 3DEXPERIENCE R2017x                                  Date 05-Jun-2023   Time 12:22:21
   For use by NTNU NORGES TEKNISK NATURVITENSKAPELIGE UNIVERSITET under license from Dassault Systemes or its subsidiary.

                                                                                 
                                                                                 
 STEP    1     INCREMENT     1     STEP TIME    0.00    


                        S T E P       1     S T A T I C   A N A L Y S I S


                                                                                          

     AUTOMATIC TIME CONTROL WITH -
          A SUGGESTED INITIAL TIME INCREMENT OF                1.000E-06
          AND A TOTAL TIME PERIOD OF                            1.00    
          THE MINIMUM TIME INCREMENT ALLOWED IS                1.000E-09
          THE MAXIMUM TIME INCREMENT ALLOWED IS                 1.00    

     LINEAR EQUATION SOLVER TYPE         DIRECT SPARSE

 CONVERGENCE TOLERANCE PARAMETERS FOR FORCE    
     CRITERION FOR RESIDUAL FORCE     FOR A NONLINEAR PROBLEM          5.000E-03
     CRITERION FOR DISP.    CORRECTION IN A NONLINEAR PROBLEM          1.000E-02
     INITIAL VALUE OF TIME AVERAGE FORCE                               1.000E-02
     AVERAGE FORCE     IS TIME AVERAGE FORCE    
     ALTERNATE CRIT. FOR RESIDUAL FORCE     FOR A NONLINEAR PROBLEM    2.000E-02
     CRITERION FOR ZERO FORCE     RELATIVE TO TIME AVRG. FORCE         1.000E-05
     CRITERION FOR RESIDUAL FORCE     WHEN THERE IS ZERO FLUX          1.000E-05
     CRITERION FOR DISP.    CORRECTION WHEN THERE IS ZERO FLUX         1.000E-03
     CRITERION FOR RESIDUAL FORCE     FOR A LINEAR INCREMENT           1.000E-08
     FIELD CONVERSION RATIO                                             1.00    
     CRITERION FOR ZERO FORCE     REL. TO TIME AVRG. MAX. FORCE        1.000E-05
     CRITERION FOR ZERO DISP.    RELATIVE TO CHARACTERISTIC LENGTH     1.000E-08

 CONVERGENCE TOLERANCE PARAMETERS FOR MOMENT   
     CRITERION FOR RESIDUAL MOMENT    FOR A NONLINEAR PROBLEM          5.000E-03
     CRITERION FOR ROTATION CORRECTION IN A NONLINEAR PROBLEM          1.000E-02
     INITIAL VALUE OF TIME AVERAGE MOMENT                              1.000E-02
     AVERAGE MOMENT    IS TIME AVERAGE MOMENT   
     ALTERNATE CRIT. FOR RESIDUAL MOMENT    FOR A NONLINEAR PROBLEM    2.000E-02
     CRITERION FOR ZERO MOMENT    RELATIVE TO TIME AVRG. MOMENT        1.000E-05
     CRITERION FOR RESIDUAL MOMENT    WHEN THERE IS ZERO FLUX          1.000E-05
     CRITERION FOR ROTATION CORRECTION WHEN THERE IS ZERO FLUX         1.000E-03
     CRITERION FOR RESIDUAL MOMENT    FOR A LINEAR INCREMENT           1.000E-08
     FIELD CONVERSION RATIO                                             1.00    
     CRITERION FOR ZERO MOMENT    REL. TO TIME AVRG. MAX. MOMENT       1.000E-05

     VOLUMETRIC STRAIN COMPATIBILITY TOLERANCE FOR HYBRID SOLIDS       1.000E-05
     AXIAL STRAIN COMPATIBILITY TOLERANCE FOR HYBRID BEAMS             1.000E-05
     TRANS. SHEAR STRAIN COMPATIBILITY TOLERANCE FOR HYBRID BEAMS      1.000E-05
     SOFT CONTACT CONSTRAINT COMPATIBILITY TOLERANCE FOR P>P0          5.000E-03
     SOFT CONTACT CONSTRAINT COMPATIBILITY TOLERANCE FOR P=0.0         0.100    
     CONTACT FORCE ERROR TOLERANCE FOR CONVERT SDI=YES                 1.00    
     DISPLACEMENT COMPATIBILITY TOLERANCE FOR DCOUP ELEMENTS           1.000E-05
     ROTATION COMPATIBILITY TOLERANCE FOR DCOUP ELEMENTS               1.000E-05

 EQUILIBRIUM WILL BE CHECKED FOR SEVERE DISCONTINUITY ITERATIONS

 TIME INCREMENTATION CONTROL PARAMETERS:
     FIRST EQUILIBRIUM ITERATION FOR CONSECUTIVE DIVERGENCE CHECK              4
     EQUILIBRIUM ITERATION AT WHICH LOG. CONVERGENCE RATE CHECK BEGINS         8
     EQUILIBRIUM ITERATION AFTER WHICH ALTERNATE RESIDUAL IS USED              9
     MAXIMUM EQUILIBRIUM ITERATIONS ALLOWED                                   16
     EQUILIBRIUM ITERATION COUNT FOR CUT-BACK IN NEXT INCREMENT               10
     MAXIMUM EQUILIB. ITERS IN TWO INCREMENTS FOR TIME INCREMENT INCREASE      4
     MAXIMUM ITERATIONS FOR SEVERE DISCONTINUITIES                            50
     MAXIMUM ATTEMPTS ALLOWED IN AN INCREMENT                                  5
     MAXIMUM DISCON. ITERS IN TWO INCREMENTS FOR TIME INCREMENT INCREASE      50
     MAXIMUM CONTACT AUGMENTATIONS FOR *SURFACE BEHAVIOR,AUGMENTED LAGRANGE   50
     CUT-BACK FACTOR AFTER DIVERGENCE                                 0.2500    
     CUT-BACK FACTOR FOR TOO SLOW CONVERGENCE                         0.5000    
     CUT-BACK FACTOR AFTER TOO MANY EQUILIBRIUM ITERATIONS            0.7500    
     CUT-BACK FACTOR AFTER TOO MANY SEVERE DISCONTINUITY ITERATIONS   0.2500    
     CUT-BACK FACTOR AFTER PROBLEMS IN ELEMENT ASSEMBLY               0.2500    
     INCREASE FACTOR AFTER TWO INCREMENTS THAT CONVERGE QUICKLY        1.500    
     MAX. TIME INCREMENT INCREASE FACTOR ALLOWED                       1.500    
     MAX. TIME INCREMENT INCREASE FACTOR ALLOWED (DYNAMICS)            1.250    
     MAX. TIME INCREMENT INCREASE FACTOR ALLOWED (DIFFUSION)           2.000    
     MINIMUM TIME INCREMENT RATIO FOR EXTRAPOLATION TO OCCUR          0.1000    
     MAX. RATIO OF TIME INCREMENT TO STABILITY LIMIT                   1.000    
     FRACTION OF STABILITY LIMIT FOR NEW TIME INCREMENT               0.9500    
     TIME INCREMENT INCREASE FACTOR BEFORE A TIME POINT                1.000    
     GLOBAL STABILIZATION CONTROL IS NOT USED

          PRINT OF INCREMENT NUMBER, TIME, ETC., EVERY    1  INCREMENTS

     THE MAXIMUM NUMBER OF INCREMENTS IN THIS STEP IS                     100

          LARGE DISPLACEMENT THEORY WILL BE USED

     LINEAR EXTRAPOLATION WILL BE USED

     CHARACTERISTIC ELEMENT LENGTH      16.2    

     DETAILS REGARDING ACTUAL SOLUTION WAVEFRONT REQUESTED

     DETAILED OUTPUT OF DIAGNOSTICS TO DATABASE REQUESTED

     PRINT OF INCREMENT NUMBER, TIME, ETC., TO THE MESSAGE FILE EVERY     1  INCREMENTS

     ELEMENT OPERATIONS WILL BE CARRIED OUT IN PARALLEL USING   4 PROCESSORS

     PARALLEL CONTACT TRACKING ENABLED


     COLLECTING MODEL CONSTRAINT INFORMATION FOR OVERCONSTRAINT CHECKS

     COLLECTING STEP CONSTRAINT INFORMATION FOR OVERCONSTRAINT CHECKS
  
     ASYNCHRONOUS OUTPUT DATABASE FRAME FLUSH STARTED
  


  INCREMENT     1 STARTS. ATTEMPT NUMBER  1, TIME INCREMENT  1.000E-06
 
     INITIAL ELEMENT LOAD BALANCE
        COMPUTE NODE   1   PROCESS    NUMBER OF ELEMENTS
                              1            53
                              2            53
                              3            53
                              4            53

 ***WARNING: THERE ARE 2 UNCONNECTED REGIONS IN THE MODEL.

  NUMBER OF EQUATIONS =      1284     NUMBER OF FLOATING PT. OPERATIONS =  2.88E+05

  USING THE DIRECT SOLVER WITH   4 PROCESSORS

     CHECK POINT   START OF SOLVER    

     CHECK POINT  END OF SOLVER       

       ELAPSED USER TIME (SEC)      =  0.10000    
       ELAPSED SYSTEM TIME (SEC)    =  0.10000    
       ELAPSED TOTAL CPU TIME (SEC) =  0.20000    
       ELAPSED WALLCLOCK TIME (SEC) =          0

               CONVERGENCE CHECKS FOR EQUILIBRIUM ITERATION     1


 AVERAGE FORCE                      2.180E+05   TIME AVG. FORCE       2.180E+05
 LARGEST RESIDUAL FORCE            -1.220E+06   AT NODE       1022   DOF  1
   INSTANCE: CABLEPART                                                                       
 LARGEST INCREMENT OF DISP.        -0.922       AT NODE       1011   DOF  3
   INSTANCE: CABLEPART                                                                       
 LARGEST CORRECTION TO DISP.       -0.922       AT NODE       1011   DOF  3
   INSTANCE: CABLEPART                                                                       
          FORCE     EQUILIBRIUM NOT ACHIEVED WITHIN TOLERANCE.

 AVERAGE MOMENT                      6.38       TIME AVG. MOMENT       6.38    
 LARGEST RESIDUAL MOMENT             1.73       AT NODE       1020   DOF  6
   INSTANCE: CABLEPART                                                                       
 LARGEST INCREMENT OF ROTATION      1.823E-02   AT NODE       1001   DOF  5
   INSTANCE: CABLEPART                                                                       
 LARGEST CORRECTION TO ROTATION     1.823E-02   AT NODE       1001   DOF  5
   INSTANCE: CABLEPART                                                                       
          MOMENT    EQUILIBRIUM NOT ACHIEVED WITHIN TOLERANCE.

  NUMBER OF EQUATIONS =      1284     NUMBER OF FLOATING PT. OPERATIONS =  2.88E+05

  USING THE DIRECT SOLVER WITH   4 PROCESSORS

     CHECK POINT   START OF SOLVER    

     CHECK POINT  END OF SOLVER       

       ELAPSED USER TIME (SEC)      =   0.0000    
       ELAPSED SYSTEM TIME (SEC)    =   0.0000    
       ELAPSED TOTAL CPU TIME (SEC) =   0.0000    
       ELAPSED WALLCLOCK TIME (SEC) =          0

               CONVERGENCE CHECKS FOR EQUILIBRIUM ITERATION     2


 AVERAGE FORCE                       346.       TIME AVG. FORCE        346.    
 LARGEST RESIDUAL FORCE            -1.019E+05   AT NODE       1028   DOF  1
   INSTANCE: CABLEPART                                                                       
 LARGEST INCREMENT OF DISP.        -0.923       AT NODE       1010   DOF  3
   INSTANCE: CABLEPART                                                                       
 LARGEST CORRECTION TO DISP.        9.111E-02   AT NODE       1054   DOF  3
   INSTANCE: CABLEPART                                                                       
          FORCE     EQUILIBRIUM NOT ACHIEVED WITHIN TOLERANCE.

 AVERAGE MOMENT                      6.80       TIME AVG. MOMENT       6.80    
 LARGEST RESIDUAL MOMENT            1.879E-03   AT NODE       1002   DOF  5
   INSTANCE: CABLEPART                                                                       
 LARGEST INCREMENT OF ROTATION      1.823E-02   AT NODE       1001   DOF  5
   INSTANCE: CABLEPART                                                                       
 LARGEST CORRECTION TO ROTATION    -1.674E-03   AT NODE       1027   DOF  5
   INSTANCE: CABLEPART                                                                       
          ROTATION CORRECTION TOO LARGE COMPARED TO ROTATION INCREMENT

  NUMBER OF EQUATIONS =      1284     NUMBER OF FLOATING PT. OPERATIONS =  2.88E+05

  USING THE DIRECT SOLVER WITH   4 PROCESSORS

     CHECK POINT   START OF SOLVER    

     CHECK POINT  END OF SOLVER       

       ELAPSED USER TIME (SEC)      =  0.10000    
       ELAPSED SYSTEM TIME (SEC)    =   0.0000    
       ELAPSED TOTAL CPU TIME (SEC) =  0.10000    
       ELAPSED WALLCLOCK TIME (SEC) =          0
 

 ***WARNING: THE SYSTEM MATRIX HAS 6 NEGATIVE EIGENVALUES.

     NEGATIVE EIGENVALUES MEAN THAT THE SYSTEM MATRIX IS NOT 
     POSITIVE DEFINITE:
     FOR EXAMPLE, A BIFURCATION (BUCKLING) LOAD MAY HAVE BEEN EXCEEDED.
 

 ***WARNING: SOLVER PROBLEM. NUMERICAL SINGULARITY WHEN PROCESSING NODE 
             CABLEPART.1091 D.O.F. 3 RATIO = 11.1203E+09 .
 

 ***WARNING: SOLVER PROBLEM. NUMERICAL SINGULARITY WHEN PROCESSING NODE 
             CABLEPART.2091 D.O.F. 3 RATIO = 11.1203E+09 .

               CONVERGENCE CHECKS FOR EQUILIBRIUM ITERATION     3


 AVERAGE FORCE                      1.506E+04   TIME AVG. FORCE       1.506E+04
 LARGEST RESIDUAL FORCE             5.041E+05   AT NODE       1105   DOF  1
   INSTANCE: CABLEPART                                                                       
 LARGEST INCREMENT OF DISP.         -1.12       AT NODE       1098   DOF  3
   INSTANCE: CABLEPART                                                                       
 LARGEST CORRECTION TO DISP.       -0.221       AT NODE       1101   DOF  3
   INSTANCE: CABLEPART                                                                       
          FORCE     EQUILIBRIUM NOT ACHIEVED WITHIN TOLERANCE.

 AVERAGE MOMENT                      8.35       TIME AVG. MOMENT       8.35    
 LARGEST RESIDUAL MOMENT            8.746E-02   AT NODE       1106   DOF  6
   INSTANCE: CABLEPART                                                                       
 LARGEST INCREMENT OF ROTATION     -2.685E-02   AT NODE       1107   DOF  5
   INSTANCE: CABLEPART                                                                       
 LARGEST CORRECTION TO ROTATION    -8.623E-03   AT NODE       1107   DOF  5
   INSTANCE: CABLEPART                                                                       
          MOMENT    EQUILIBRIUM NOT ACHIEVED WITHIN TOLERANCE.

  NUMBER OF EQUATIONS =      1284     NUMBER OF FLOATING PT. OPERATIONS =  2.88E+05

  USING THE DIRECT SOLVER WITH   4 PROCESSORS

     CHECK POINT   START OF SOLVER    

     CHECK POINT  END OF SOLVER       

       ELAPSED USER TIME (SEC)      =   0.0000    
       ELAPSED SYSTEM TIME (SEC)    =   0.0000    
       ELAPSED TOTAL CPU TIME (SEC) =   0.0000    
       ELAPSED WALLCLOCK TIME (SEC) =          0

               CONVERGENCE CHECKS FOR EQUILIBRIUM ITERATION     4


 AVERAGE FORCE                       169.       TIME AVG. FORCE        169.    
 LARGEST RESIDUAL FORCE            -3.890E+04   AT NODE       1028   DOF  1
   INSTANCE: CABLEPART                                                                       
 LARGEST INCREMENT OF DISP.         -1.12       AT NODE       1098   DOF  3
   INSTANCE: CABLEPART                                                                       
 LARGEST CORRECTION TO DISP.       -2.958E-02   AT NODE       1028   DOF  3
   INSTANCE: CABLEPART                                                                       
          FORCE     EQUILIBRIUM NOT ACHIEVED WITHIN TOLERANCE.

 AVERAGE MOMENT                      8.10       TIME AVG. MOMENT       8.10    
 LARGEST RESIDUAL MOMENT           -1.421E-03   AT NODE       1106   DOF  5
   INSTANCE: CABLEPART                                                                       
 LARGEST INCREMENT OF ROTATION     -2.685E-02   AT NODE       1107   DOF  5
   INSTANCE: CABLEPART                                                                       
 LARGEST CORRECTION TO ROTATION     1.072E-03   AT NODE       1027   DOF  5
   INSTANCE: CABLEPART                                                                       
          ROTATION CORRECTION TOO LARGE COMPARED TO ROTATION INCREMENT

  NUMBER OF EQUATIONS =      1284     NUMBER OF FLOATING PT. OPERATIONS =  2.88E+05

  USING THE DIRECT SOLVER WITH   4 PROCESSORS

     CHECK POINT   START OF SOLVER    

     CHECK POINT  END OF SOLVER       

       ELAPSED USER TIME (SEC)      =  0.10000    
       ELAPSED SYSTEM TIME (SEC)    =   0.0000    
       ELAPSED TOTAL CPU TIME (SEC) =  0.10000    
       ELAPSED WALLCLOCK TIME (SEC) =          0

               CONVERGENCE CHECKS FOR EQUILIBRIUM ITERATION     5


 AVERAGE FORCE                      8.129E+04   TIME AVG. FORCE       8.129E+04
 LARGEST RESIDUAL FORCE            -1.336E+06   AT NODE       1003   DOF  1
   INSTANCE: CABLEPART                                                                       
 LARGEST INCREMENT OF DISP.        -0.565       AT NODE       1098   DOF  3
   INSTANCE: CABLEPART                                                                       
 LARGEST CORRECTION TO DISP.        0.555       AT NODE       1010   DOF  3
   INSTANCE: CABLEPART                                                                       
          FORCE     EQUILIBRIUM NOT ACHIEVED WITHIN TOLERANCE.

 AVERAGE MOMENT                      3.90       TIME AVG. MOMENT       3.90    
 LARGEST RESIDUAL MOMENT            0.455       AT NODE       1002   DOF  5
   INSTANCE: CABLEPART                                                                       
 LARGEST INCREMENT OF ROTATION     -1.088E-02   AT NODE       1107   DOF  5
   INSTANCE: CABLEPART                                                                       
 LARGEST CORRECTION TO ROTATION    -1.596E-02   AT NODE       1001   DOF  5
   INSTANCE: CABLEPART                                                                       
          MOMENT    EQUILIBRIUM NOT ACHIEVED WITHIN TOLERANCE.
 

 ***NOTE: THE SOLUTION APPEARS TO BE DIVERGING. CONVERGENCE IS JUDGED UNLIKELY.


  INCREMENT     1 STARTS. ATTEMPT NUMBER  2, TIME INCREMENT  2.500E-07
 
     INITIAL ELEMENT LOAD BALANCE
        COMPUTE NODE   1   PROCESS    NUMBER OF ELEMENTS
                              1            53
                              2            53
                              3            53
                              4            53

  NUMBER OF EQUATIONS =      1284     NUMBER OF FLOATING PT. OPERATIONS =  2.88E+05

  USING THE DIRECT SOLVER WITH   4 PROCESSORS

     CHECK POINT   START OF SOLVER    

     CHECK POINT  END OF SOLVER       

       ELAPSED USER TIME (SEC)      =   0.0000    
       ELAPSED SYSTEM TIME (SEC)    =   0.0000    
       ELAPSED TOTAL CPU TIME (SEC) =   0.0000    
       ELAPSED WALLCLOCK TIME (SEC) =          0

               CONVERGENCE CHECKS FOR EQUILIBRIUM ITERATION     1


 AVERAGE FORCE                      1.364E+04   TIME AVG. FORCE       1.364E+04
 LARGEST RESIDUAL FORCE            -7.598E+04   AT NODE       1022   DOF  1
   INSTANCE: CABLEPART                                                                       
 LARGEST INCREMENT OF DISP.        -0.230       AT NODE       1011   DOF  3
   INSTANCE: CABLEPART                                                                       
 LARGEST CORRECTION TO DISP.       -0.230       AT NODE       1011   DOF  3
   INSTANCE: CABLEPART                                                                       
          FORCE     EQUILIBRIUM NOT ACHIEVED WITHIN TOLERANCE.

 AVERAGE MOMENT                      1.58       TIME AVG. MOMENT       1.58    
 LARGEST RESIDUAL MOMENT            0.108       AT NODE       1020   DOF  6
   INSTANCE: CABLEPART                                                                       
 LARGEST INCREMENT OF ROTATION      4.557E-03   AT NODE       1001   DOF  5
   INSTANCE: CABLEPART                                                                       
 LARGEST CORRECTION TO ROTATION     4.557E-03   AT NODE       1001   DOF  5
   INSTANCE: CABLEPART                                                                       
          MOMENT    EQUILIBRIUM NOT ACHIEVED WITHIN TOLERANCE.

  NUMBER OF EQUATIONS =      1284     NUMBER OF FLOATING PT. OPERATIONS =  2.88E+05

  USING THE DIRECT SOLVER WITH   4 PROCESSORS

     CHECK POINT   START OF SOLVER    

     CHECK POINT  END OF SOLVER       

       ELAPSED USER TIME (SEC)      =  0.10000    
       ELAPSED SYSTEM TIME (SEC)    =  0.10000    
       ELAPSED TOTAL CPU TIME (SEC) =  0.20000    
       ELAPSED WALLCLOCK TIME (SEC) =          0

               CONVERGENCE CHECKS FOR EQUILIBRIUM ITERATION     2


 AVERAGE FORCE                       1.96       TIME AVG. FORCE        1.96    
 LARGEST RESIDUAL FORCE              87.8       AT NODE       1027   DOF  1
   INSTANCE: CABLEPART                                                                       
 LARGEST INCREMENT OF DISP.        -0.230       AT NODE       1011   DOF  3
   INSTANCE: CABLEPART                                                                       
 LARGEST CORRECTION TO DISP.        6.105E-03   AT NODE       1054   DOF  3
   INSTANCE: CABLEPART                                                                       
          FORCE     EQUILIBRIUM NOT ACHIEVED WITHIN TOLERANCE.

 AVERAGE MOMENT                      1.58       TIME AVG. MOMENT       1.58    
 LARGEST RESIDUAL MOMENT            3.119E-05   AT NODE       1002   DOF  5
   INSTANCE: CABLEPART                                                                       
 LARGEST INCREMENT OF ROTATION      4.557E-03   AT NODE       1001   DOF  5
   INSTANCE: CABLEPART                                                                       
 LARGEST CORRECTION TO ROTATION    -6.829E-05   AT NODE       1028   DOF  5
   INSTANCE: CABLEPART                                                                       
          ROTATION CORRECTION TOO LARGE COMPARED TO ROTATION INCREMENT

  NUMBER OF EQUATIONS =      1284     NUMBER OF FLOATING PT. OPERATIONS =  2.88E+05

  USING THE DIRECT SOLVER WITH   4 PROCESSORS

     CHECK POINT   START OF SOLVER    

     CHECK POINT  END OF SOLVER       

       ELAPSED USER TIME (SEC)      =   0.0000    
       ELAPSED SYSTEM TIME (SEC)    =   0.0000    
       ELAPSED TOTAL CPU TIME (SEC) =   0.0000    
       ELAPSED WALLCLOCK TIME (SEC) =          0

               CONVERGENCE CHECKS FOR EQUILIBRIUM ITERATION     3


 AVERAGE FORCE                       497.       TIME AVG. FORCE        497.    
 LARGEST RESIDUAL FORCE            -2.196E+03   AT NODE       1024   DOF  1
   INSTANCE: CABLEPART                                                                       
 LARGEST INCREMENT OF DISP.        -0.194       AT NODE       1010   DOF  3
   INSTANCE: CABLEPART                                                                       
 LARGEST CORRECTION TO DISP.        6.833E-02   AT NODE       1054   DOF  3
   INSTANCE: CABLEPART                                                                       
          FORCE     EQUILIBRIUM NOT ACHIEVED WITHIN TOLERANCE.

 AVERAGE MOMENT                      1.32       TIME AVG. MOMENT       1.32    
 LARGEST RESIDUAL MOMENT           -5.733E-03   AT NODE       1088   DOF  6
   INSTANCE: CABLEPART                                                                       
 LARGEST INCREMENT OF ROTATION      3.882E-03   AT NODE       1001   DOF  5
   INSTANCE: CABLEPART                                                                       
 LARGEST CORRECTION TO ROTATION     6.754E-04   AT NODE       1107   DOF  5
   INSTANCE: CABLEPART                                                                       
          ROTATION CORRECTION TOO LARGE COMPARED TO ROTATION INCREMENT

  NUMBER OF EQUATIONS =      1284     NUMBER OF FLOATING PT. OPERATIONS =  2.88E+05

  USING THE DIRECT SOLVER WITH   4 PROCESSORS

     CHECK POINT   START OF SOLVER    

     CHECK POINT  END OF SOLVER       

       ELAPSED USER TIME (SEC)      =  0.10000    
       ELAPSED SYSTEM TIME (SEC)    =   0.0000    
       ELAPSED TOTAL CPU TIME (SEC) =  0.10000    
       ELAPSED WALLCLOCK TIME (SEC) =          0

               CONVERGENCE CHECKS FOR EQUILIBRIUM ITERATION     4


 AVERAGE FORCE                       1.34       TIME AVG. FORCE        1.34    
 LARGEST RESIDUAL FORCE             -2.06       AT NODE       1028   DOF  1
   INSTANCE: CABLEPART                                                                       
 LARGEST INCREMENT OF DISP.        -0.194       AT NODE       1010   DOF  3
   INSTANCE: CABLEPART                                                                       
 LARGEST CORRECTION TO DISP.        5.513E-04   AT NODE       1054   DOF  3
   INSTANCE: CABLEPART                                                                       
          FORCE     EQUILIBRIUM NOT ACHIEVED WITHIN TOLERANCE.

 AVERAGE MOMENT                      1.32       TIME AVG. MOMENT       1.32    
 LARGEST RESIDUAL MOMENT            6.951E-07   AT NODE       1088   DOF  5
   INSTANCE: CABLEPART                                                                       
 LARGEST INCREMENT OF ROTATION      3.882E-03   AT NODE       1001   DOF  5
   INSTANCE: CABLEPART                                                                       
 LARGEST CORRECTION TO ROTATION    -9.505E-06   AT NODE       1081   DOF  5
   INSTANCE: CABLEPART                                                                       
          THE MOMENT    EQUILIBRIUM EQUATIONS HAVE CONVERGED

  NUMBER OF EQUATIONS =      1284     NUMBER OF FLOATING PT. OPERATIONS =  2.88E+05

  USING THE DIRECT SOLVER WITH   4 PROCESSORS

     CHECK POINT   START OF SOLVER    

     CHECK POINT  END OF SOLVER       

       ELAPSED USER TIME (SEC)      =   0.0000    
       ELAPSED SYSTEM TIME (SEC)    =   0.0000    
       ELAPSED TOTAL CPU TIME (SEC) =   0.0000    
       ELAPSED WALLCLOCK TIME (SEC) =          0

               CONVERGENCE CHECKS FOR EQUILIBRIUM ITERATION     5


 AVERAGE FORCE                       7.02       TIME AVG. FORCE        7.02    
 LARGEST RESIDUAL FORCE              60.2       AT NODE       1026   DOF  1
   INSTANCE: CABLEPART                                                                       
 LARGEST INCREMENT OF DISP.        -0.195       AT NODE       1010   DOF  3
   INSTANCE: CABLEPART                                                                       
 LARGEST CORRECTION TO DISP.       -1.224E-02   AT NODE       1054   DOF  2
   INSTANCE: CABLEPART                                                                       
          FORCE     EQUILIBRIUM NOT ACHIEVED WITHIN TOLERANCE.

 AVERAGE MOMENT                      1.31       TIME AVG. MOMENT       1.31    
 LARGEST RESIDUAL MOMENT           -2.471E-04   AT NODE       1041   DOF  6
   INSTANCE: CABLEPART                                                                       
 LARGEST INCREMENT OF ROTATION      3.885E-03   AT NODE       1001   DOF  5
   INSTANCE: CABLEPART                                                                       
 LARGEST CORRECTION TO ROTATION     8.527E-05   AT NODE       1027   DOF  5
   INSTANCE: CABLEPART                                                                       
          ROTATION CORRECTION TOO LARGE COMPARED TO ROTATION INCREMENT

  NUMBER OF EQUATIONS =      1284     NUMBER OF FLOATING PT. OPERATIONS =  2.88E+05

  USING THE DIRECT SOLVER WITH   4 PROCESSORS

     CHECK POINT   START OF SOLVER    

     CHECK POINT  END OF SOLVER       

       ELAPSED USER TIME (SEC)      =  0.10000    
       ELAPSED SYSTEM TIME (SEC)    =   0.0000    
       ELAPSED TOTAL CPU TIME (SEC) =  0.10000    
       ELAPSED WALLCLOCK TIME (SEC) =          0

               CONVERGENCE CHECKS FOR EQUILIBRIUM ITERATION     6


 AVERAGE FORCE                       1.32       TIME AVG. FORCE        1.32    
 LARGEST RESIDUAL FORCE            -2.291E-03   AT NODE       1081   DOF  1
   INSTANCE: CABLEPART                                                                       
 LARGEST INCREMENT OF DISP.        -0.195       AT NODE       1010   DOF  3
   INSTANCE: CABLEPART                                                                       
 LARGEST CORRECTION TO DISP.       -5.500E-05   AT NODE       1054   DOF  2
   INSTANCE: CABLEPART                                                                       
          THE FORCE     EQUILIBRIUM EQUATIONS HAVE CONVERGED

 AVERAGE MOMENT                      1.31       TIME AVG. MOMENT       1.31    
 LARGEST RESIDUAL MOMENT            2.119E-07   AT NODE       1088   DOF  6
   INSTANCE: CABLEPART                                                                       
 LARGEST INCREMENT OF ROTATION      3.885E-03   AT NODE       1001   DOF  5
   INSTANCE: CABLEPART                                                                       
 LARGEST CORRECTION TO ROTATION     3.099E-07   AT NODE       1028   DOF  5
   INSTANCE: CABLEPART                                                                       
          THE MOMENT    EQUILIBRIUM EQUATIONS HAVE CONVERGED

 ITERATION SUMMARY FOR THE INCREMENT:   6 TOTAL ITERATIONS, OF WHICH
   0 ARE SEVERE DISCONTINUITY ITERATIONS AND  6 ARE EQUILIBRIUM ITERATIONS.

 TIME INCREMENT COMPLETED  2.500E-07,  FRACTION OF STEP COMPLETED  2.500E-07
 STEP TIME COMPLETED       2.500E-07,  TOTAL TIME COMPLETED        2.500E-07


  INCREMENT     2 STARTS. ATTEMPT NUMBER  1, TIME INCREMENT  2.500E-07

  NUMBER OF EQUATIONS =      1284     NUMBER OF FLOATING PT. OPERATIONS =  2.88E+05

  USING THE DIRECT SOLVER WITH   4 PROCESSORS

     CHECK POINT   START OF SOLVER    

     CHECK POINT  END OF SOLVER       

       ELAPSED USER TIME (SEC)      =  0.10000    
       ELAPSED SYSTEM TIME (SEC)    =   0.0000    
       ELAPSED TOTAL CPU TIME (SEC) =  0.10000    
       ELAPSED WALLCLOCK TIME (SEC) =          0

               CONVERGENCE CHECKS FOR EQUILIBRIUM ITERATION     1


 AVERAGE FORCE                      2.586E+03   TIME AVG. FORCE       1.294E+03
 LARGEST RESIDUAL FORCE             4.740E+03   AT NODE       1084   DOF  1
   INSTANCE: CABLEPART                                                                       
 LARGEST INCREMENT OF DISP.        -0.138       AT NODE       1010   DOF  3
   INSTANCE: CABLEPART                                                                       
 LARGEST CORRECTION TO DISP.        9.639E-02   AT NODE       1054   DOF  3
   INSTANCE: CABLEPART                                                                       
          FORCE     EQUILIBRIUM NOT ACHIEVED WITHIN TOLERANCE.

 AVERAGE MOMENT                      2.39       TIME AVG. MOMENT       1.85    
 LARGEST RESIDUAL MOMENT           -9.748E-03   AT NODE       1088   DOF  6
   INSTANCE: CABLEPART                                                                       
 LARGEST INCREMENT OF ROTATION      2.801E-03   AT NODE       1001   DOF  5
   INSTANCE: CABLEPART                                                                       
 LARGEST CORRECTION TO ROTATION     1.084E-03   AT NODE       1107   DOF  5
   INSTANCE: CABLEPART                                                                       
          MOMENT    EQUILIBRIUM NOT ACHIEVED WITHIN TOLERANCE.

  NUMBER OF EQUATIONS =      1284     NUMBER OF FLOATING PT. OPERATIONS =  2.88E+05

  USING THE DIRECT SOLVER WITH   4 PROCESSORS

     CHECK POINT   START OF SOLVER    

     CHECK POINT  END OF SOLVER       

       ELAPSED USER TIME (SEC)      =   0.0000    
       ELAPSED SYSTEM TIME (SEC)    =  0.10000    
       ELAPSED TOTAL CPU TIME (SEC) =  0.10000    
       ELAPSED WALLCLOCK TIME (SEC) =          0

               CONVERGENCE CHECKS FOR EQUILIBRIUM ITERATION     2


 AVERAGE FORCE                       6.28       TIME AVG. FORCE        3.80    
 LARGEST RESIDUAL FORCE            -0.693       AT NODE       1029   DOF  1
   INSTANCE: CABLEPART                                                                       
 LARGEST INCREMENT OF DISP.        -0.138       AT NODE       1010   DOF  3
   INSTANCE: CABLEPART                                                                       
 LARGEST CORRECTION TO DISP.        5.812E-04   AT NODE       1032   DOF  3
   INSTANCE: CABLEPART                                                                       
          FORCE     EQUILIBRIUM NOT ACHIEVED WITHIN TOLERANCE.

 AVERAGE MOMENT                      2.48       TIME AVG. MOMENT       1.89    
 LARGEST RESIDUAL MOMENT            3.232E-06   AT NODE       1088   DOF  5
   INSTANCE: CABLEPART                                                                       
 LARGEST INCREMENT OF ROTATION      2.802E-03   AT NODE       1001   DOF  5
   INSTANCE: CABLEPART                                                                       
 LARGEST CORRECTION TO ROTATION    -7.566E-06   AT NODE       1028   DOF  5
   INSTANCE: CABLEPART                                                                       
          THE MOMENT    EQUILIBRIUM EQUATIONS HAVE CONVERGED

  NUMBER OF EQUATIONS =      1284     NUMBER OF FLOATING PT. OPERATIONS =  2.88E+05

  USING THE DIRECT SOLVER WITH   4 PROCESSORS

     CHECK POINT   START OF SOLVER    

     CHECK POINT  END OF SOLVER       

       ELAPSED USER TIME (SEC)      =   0.0000    
       ELAPSED SYSTEM TIME (SEC)    =   0.0000    
       ELAPSED TOTAL CPU TIME (SEC) =   0.0000    
       ELAPSED WALLCLOCK TIME (SEC) =          0

               CONVERGENCE CHECKS FOR EQUILIBRIUM ITERATION     3


 AVERAGE FORCE                       113.       TIME AVG. FORCE        57.3    
 LARGEST RESIDUAL FORCE             -182.       AT NODE       1026   DOF  1
   INSTANCE: CABLEPART                                                                       
 LARGEST INCREMENT OF DISP.        -0.146       AT NODE       1010   DOF  3
   INSTANCE: CABLEPART                                                                       
 LARGEST CORRECTION TO DISP.       -2.772E-02   AT NODE       1054   DOF  3
   INSTANCE: CABLEPART                                                                       
          FORCE     EQUILIBRIUM NOT ACHIEVED WITHIN TOLERANCE.

 AVERAGE MOMENT                      2.48       TIME AVG. MOMENT       1.90    
 LARGEST RESIDUAL MOMENT           -6.591E-04   AT NODE       1088   DOF  6
   INSTANCE: CABLEPART                                                                       
 LARGEST INCREMENT OF ROTATION      2.960E-03   AT NODE       1001   DOF  5
   INSTANCE: CABLEPART                                                                       
 LARGEST CORRECTION TO ROTATION     1.934E-04   AT NODE       1085   DOF  5
   INSTANCE: CABLEPART                                                                       
          ROTATION CORRECTION TOO LARGE COMPARED TO ROTATION INCREMENT

  NUMBER OF EQUATIONS =      1284     NUMBER OF FLOATING PT. OPERATIONS =  2.88E+05

  USING THE DIRECT SOLVER WITH   4 PROCESSORS

     CHECK POINT   START OF SOLVER    

     CHECK POINT  END OF SOLVER       

       ELAPSED USER TIME (SEC)      =  0.10000    
       ELAPSED SYSTEM TIME (SEC)    =   0.0000    
       ELAPSED TOTAL CPU TIME (SEC) =  0.10000    
       ELAPSED WALLCLOCK TIME (SEC) =          0

               CONVERGENCE CHECKS FOR EQUILIBRIUM ITERATION     4


 AVERAGE FORCE                       7.02       TIME AVG. FORCE        4.17    
 LARGEST RESIDUAL FORCE            -2.146E-03   AT NODE       1099   DOF  1
   INSTANCE: CABLEPART                                                                       
 LARGEST INCREMENT OF DISP.        -0.146       AT NODE       1010   DOF  3
   INSTANCE: CABLEPART                                                                       
 LARGEST CORRECTION TO DISP.        2.593E-05   AT NODE       1070   DOF  3
   INSTANCE: CABLEPART                                                                       
          THE FORCE     EQUILIBRIUM EQUATIONS HAVE CONVERGED

 AVERAGE MOMENT                      2.47       TIME AVG. MOMENT       1.89    
 LARGEST RESIDUAL MOMENT            8.349E-08   AT NODE       1088   DOF  5
   INSTANCE: CABLEPART                                                                       
 LARGEST INCREMENT OF ROTATION      2.960E-03   AT NODE       1001   DOF  5
   INSTANCE: CABLEPART                                                                       
 LARGEST CORRECTION TO ROTATION     2.515E-07   AT NODE       1080   DOF  5
   INSTANCE: CABLEPART                                                                       
          THE MOMENT    EQUILIBRIUM EQUATIONS HAVE CONVERGED

 ITERATION SUMMARY FOR THE INCREMENT:   4 TOTAL ITERATIONS, OF WHICH
   0 ARE SEVERE DISCONTINUITY ITERATIONS AND  4 ARE EQUILIBRIUM ITERATIONS.

 TIME INCREMENT COMPLETED  2.500E-07,  FRACTION OF STEP COMPLETED  5.000E-07
 STEP TIME COMPLETED       5.000E-07,  TOTAL TIME COMPLETED        5.000E-07


  INCREMENT     3 STARTS. ATTEMPT NUMBER  1, TIME INCREMENT  2.500E-07

  NUMBER OF EQUATIONS =      1284     NUMBER OF FLOATING PT. OPERATIONS =  2.88E+05

  USING THE DIRECT SOLVER WITH   4 PROCESSORS

     CHECK POINT   START OF SOLVER    

     CHECK POINT  END OF SOLVER       

       ELAPSED USER TIME (SEC)      =   0.0000    
       ELAPSED SYSTEM TIME (SEC)    =   0.0000    
       ELAPSED TOTAL CPU TIME (SEC) =   0.0000    
       ELAPSED WALLCLOCK TIME (SEC) =          0

               CONVERGENCE CHECKS FOR EQUILIBRIUM ITERATION     1


 AVERAGE FORCE                       761.       TIME AVG. FORCE        256.    
 LARGEST RESIDUAL FORCE             1.666E+03   AT NODE       1085   DOF  1
   INSTANCE: CABLEPART                                                                       
 LARGEST INCREMENT OF DISP.        -0.112       AT NODE       1010   DOF  3
   INSTANCE: CABLEPART                                                                       
 LARGEST CORRECTION TO DISP.        3.423E-02   AT NODE       1097   DOF  3
   INSTANCE: CABLEPART                                                                       
          FORCE     EQUILIBRIUM NOT ACHIEVED WITHIN TOLERANCE.

 AVERAGE MOMENT                      3.32       TIME AVG. MOMENT       2.37    
 LARGEST RESIDUAL MOMENT            2.106E-03   AT NODE       1106   DOF  5
   INSTANCE: CABLEPART                                                                       
 LARGEST INCREMENT OF ROTATION      2.295E-03   AT NODE       1001   DOF  5
   INSTANCE: CABLEPART                                                                       
 LARGEST CORRECTION TO ROTATION     6.647E-04   AT NODE       1107   DOF  5
   INSTANCE: CABLEPART                                                                       
          ROTATION CORRECTION TOO LARGE COMPARED TO ROTATION INCREMENT

  NUMBER OF EQUATIONS =      1284     NUMBER OF FLOATING PT. OPERATIONS =  2.88E+05

  USING THE DIRECT SOLVER WITH   4 PROCESSORS

     CHECK POINT   START OF SOLVER    

     CHECK POINT  END OF SOLVER       

       ELAPSED USER TIME (SEC)      =  0.10000    
       ELAPSED SYSTEM TIME (SEC)    =   0.0000    
       ELAPSED TOTAL CPU TIME (SEC) =  0.10000    
       ELAPSED WALLCLOCK TIME (SEC) =          0

               CONVERGENCE CHECKS FOR EQUILIBRIUM ITERATION     2


 AVERAGE FORCE                       10.6       TIME AVG. FORCE        6.30    
 LARGEST RESIDUAL FORCE             0.215       AT NODE       1080   DOF  1
   INSTANCE: CABLEPART                                                                       
 LARGEST INCREMENT OF DISP.        -0.112       AT NODE       1010   DOF  3
   INSTANCE: CABLEPART                                                                       
 LARGEST CORRECTION TO DISP.        4.030E-04   AT NODE       1078   DOF  3
   INSTANCE: CABLEPART                                                                       
          FORCE     EQUILIBRIUM NOT ACHIEVED WITHIN TOLERANCE.

 AVERAGE MOMENT                      3.35       TIME AVG. MOMENT       2.38    
 LARGEST RESIDUAL MOMENT            1.546E-06   AT NODE       1088   DOF  5
   INSTANCE: CABLEPART                                                                       
 LARGEST INCREMENT OF ROTATION      2.296E-03   AT NODE       1001   DOF  5
   INSTANCE: CABLEPART                                                                       
 LARGEST CORRECTION TO ROTATION     4.607E-06   AT NODE       1082   DOF  5
   INSTANCE: CABLEPART                                                                       
          THE MOMENT    EQUILIBRIUM EQUATIONS HAVE CONVERGED

  NUMBER OF EQUATIONS =      1284     NUMBER OF FLOATING PT. OPERATIONS =  2.88E+05

  USING THE DIRECT SOLVER WITH   4 PROCESSORS

     CHECK POINT   START OF SOLVER    

     CHECK POINT  END OF SOLVER       

       ELAPSED USER TIME (SEC)      =   0.0000    
       ELAPSED SYSTEM TIME (SEC)    =   0.0000    
       ELAPSED TOTAL CPU TIME (SEC) =   0.0000    
       ELAPSED WALLCLOCK TIME (SEC) =          0

               CONVERGENCE CHECKS FOR EQUILIBRIUM ITERATION     3


 AVERAGE FORCE                       24.2       TIME AVG. FORCE        10.8    
 LARGEST RESIDUAL FORCE              29.2       AT NODE       1084   DOF  1
   INSTANCE: CABLEPART                                                                       
 LARGEST INCREMENT OF DISP.        -0.116       AT NODE       1098   DOF  3
   INSTANCE: CABLEPART                                                                       
 LARGEST CORRECTION TO DISP.        5.975E-03   AT NODE       1080   DOF  3
   INSTANCE: CABLEPART                                                                       
          FORCE     EQUILIBRIUM NOT ACHIEVED WITHIN TOLERANCE.

 AVERAGE MOMENT                      3.37       TIME AVG. MOMENT       2.39    
 LARGEST RESIDUAL MOMENT           -3.440E-05   AT NODE       1088   DOF  6
   INSTANCE: CABLEPART                                                                       
 LARGEST INCREMENT OF ROTATION     -2.370E-03   AT NODE       1107   DOF  5
   INSTANCE: CABLEPART                                                                       
 LARGEST CORRECTION TO ROTATION    -7.454E-05   AT NODE       1107   DOF  5
   INSTANCE: CABLEPART                                                                       
          ROTATION CORRECTION TOO LARGE COMPARED TO ROTATION INCREMENT

  NUMBER OF EQUATIONS =      1284     NUMBER OF FLOATING PT. OPERATIONS =  2.88E+05

  USING THE DIRECT SOLVER WITH   4 PROCESSORS

     CHECK POINT   START OF SOLVER    

     CHECK POINT  END OF SOLVER       

       ELAPSED USER TIME (SEC)      =  0.10000    
       ELAPSED SYSTEM TIME (SEC)    =   0.0000    
       ELAPSED TOTAL CPU TIME (SEC) =  0.10000    
       ELAPSED WALLCLOCK TIME (SEC) =          0

               CONVERGENCE CHECKS FOR EQUILIBRIUM ITERATION     4


 AVERAGE FORCE                       10.5       TIME AVG. FORCE        6.29    
 LARGEST RESIDUAL FORCE             1.304E-03   AT NODE       1019   DOF  1
   INSTANCE: CABLEPART                                                                       
 LARGEST INCREMENT OF DISP.        -0.116       AT NODE       1098   DOF  3
   INSTANCE: CABLEPART                                                                       
 LARGEST CORRECTION TO DISP.        8.087E-06   AT NODE       1077   DOF  3
   INSTANCE: CABLEPART                                                                       
          THE FORCE     EQUILIBRIUM EQUATIONS HAVE CONVERGED

 AVERAGE MOMENT                      3.37       TIME AVG. MOMENT       2.39    
 LARGEST RESIDUAL MOMENT            2.255E-08   AT NODE       1088   DOF  5
   INSTANCE: CABLEPART                                                                       
 LARGEST INCREMENT OF ROTATION     -2.370E-03   AT NODE       1107   DOF  5
   INSTANCE: CABLEPART                                                                       
 LARGEST CORRECTION TO ROTATION     7.351E-08   AT NODE       1082   DOF  5
   INSTANCE: CABLEPART                                                                       
          THE MOMENT    EQUILIBRIUM EQUATIONS HAVE CONVERGED
          TIME INCREMENT MAY NOW INCREASE TO    3.750E-07

 ITERATION SUMMARY FOR THE INCREMENT:   4 TOTAL ITERATIONS, OF WHICH
   0 ARE SEVERE DISCONTINUITY ITERATIONS AND  4 ARE EQUILIBRIUM ITERATIONS.

 TIME INCREMENT COMPLETED  2.500E-07,  FRACTION OF STEP COMPLETED  7.500E-07
 STEP TIME COMPLETED       7.500E-07,  TOTAL TIME COMPLETED        7.500E-07


  INCREMENT     4 STARTS. ATTEMPT NUMBER  1, TIME INCREMENT  3.750E-07

  NUMBER OF EQUATIONS =      1284     NUMBER OF FLOATING PT. OPERATIONS =  2.88E+05

  USING THE DIRECT SOLVER WITH   4 PROCESSORS

     CHECK POINT   START OF SOLVER    

     CHECK POINT  END OF SOLVER       

       ELAPSED USER TIME (SEC)      =   0.0000    
       ELAPSED SYSTEM TIME (SEC)    =   0.0000    
       ELAPSED TOTAL CPU TIME (SEC) =   0.0000    
       ELAPSED WALLCLOCK TIME (SEC) =          1

               CONVERGENCE CHECKS FOR EQUILIBRIUM ITERATION     1


 AVERAGE FORCE                      1.173E+03   TIME AVG. FORCE        298.    
 LARGEST RESIDUAL FORCE            -2.682E+03   AT NODE       1022   DOF  1
   INSTANCE: CABLEPART                                                                       
 LARGEST INCREMENT OF DISP.        -0.131       AT NODE       1010   DOF  3
   INSTANCE: CABLEPART                                                                       
 LARGEST CORRECTION TO DISP.        4.366E-02   AT NODE       1098   DOF  3
   INSTANCE: CABLEPART                                                                       
          FORCE     EQUILIBRIUM NOT ACHIEVED WITHIN TOLERANCE.

 AVERAGE MOMENT                      4.37       TIME AVG. MOMENT       2.88    
 LARGEST RESIDUAL MOMENT           -3.241E-03   AT NODE       1002   DOF  5
   INSTANCE: CABLEPART                                                                       
 LARGEST INCREMENT OF ROTATION     -2.695E-03   AT NODE       1107   DOF  5
   INSTANCE: CABLEPART                                                                       
 LARGEST CORRECTION TO ROTATION    -8.601E-04   AT NODE       1001   DOF  5
   INSTANCE: CABLEPART                                                                       
          ROTATION CORRECTION TOO LARGE COMPARED TO ROTATION INCREMENT

  NUMBER OF EQUATIONS =      1284     NUMBER OF FLOATING PT. OPERATIONS =  2.88E+05

  USING THE DIRECT SOLVER WITH   4 PROCESSORS

     CHECK POINT   START OF SOLVER    

     CHECK POINT  END OF SOLVER       

       ELAPSED USER TIME (SEC)      =   0.0000    
       ELAPSED SYSTEM TIME (SEC)    =   0.0000    
       ELAPSED TOTAL CPU TIME (SEC) =   0.0000    
       ELAPSED WALLCLOCK TIME (SEC) =          0

               CONVERGENCE CHECKS FOR EQUILIBRIUM ITERATION     2


 AVERAGE FORCE                       15.8       TIME AVG. FORCE        8.68    
 LARGEST RESIDUAL FORCE            -0.316       AT NODE       1027   DOF  1
   INSTANCE: CABLEPART                                                                       
 LARGEST INCREMENT OF DISP.        -0.131       AT NODE       1010   DOF  3
   INSTANCE: CABLEPART                                                                       
 LARGEST CORRECTION TO DISP.        4.116E-04   AT NODE       1028   DOF  3
   INSTANCE: CABLEPART                                                                       
          FORCE     EQUILIBRIUM NOT ACHIEVED WITHIN TOLERANCE.

 AVERAGE MOMENT                      4.40       TIME AVG. MOMENT       2.89    
 LARGEST RESIDUAL MOMENT           -3.400E-06   AT NODE       1106   DOF  5
   INSTANCE: CABLEPART                                                                       
 LARGEST INCREMENT OF ROTATION     -2.696E-03   AT NODE       1107   DOF  5
   INSTANCE: CABLEPART                                                                       
 LARGEST CORRECTION TO ROTATION    -5.199E-06   AT NODE       1025   DOF  5
   INSTANCE: CABLEPART                                                                       
          THE MOMENT    EQUILIBRIUM EQUATIONS HAVE CONVERGED

  NUMBER OF EQUATIONS =      1284     NUMBER OF FLOATING PT. OPERATIONS =  2.88E+05

  USING THE DIRECT SOLVER WITH   4 PROCESSORS

     CHECK POINT   START OF SOLVER    

     CHECK POINT  END OF SOLVER       

       ELAPSED USER TIME (SEC)      =   0.0000    
       ELAPSED SYSTEM TIME (SEC)    =   0.0000    
       ELAPSED TOTAL CPU TIME (SEC) =   0.0000    
       ELAPSED WALLCLOCK TIME (SEC) =          0

               CONVERGENCE CHECKS FOR EQUILIBRIUM ITERATION     3


 AVERAGE FORCE                       43.3       TIME AVG. FORCE        15.5    
 LARGEST RESIDUAL FORCE             -61.0       AT NODE       1023   DOF  1
   INSTANCE: CABLEPART                                                                       
 LARGEST INCREMENT OF DISP.        -0.137       AT NODE       1010   DOF  3
   INSTANCE: CABLEPART                                                                       
 LARGEST CORRECTION TO DISP.        6.581E-03   AT NODE       1081   DOF  3
   INSTANCE: CABLEPART                                                                       
          FORCE     EQUILIBRIUM NOT ACHIEVED WITHIN TOLERANCE.

 AVERAGE MOMENT                      4.45       TIME AVG. MOMENT       2.90    
 LARGEST RESIDUAL MOMENT            8.302E-05   AT NODE       1020   DOF  6
   INSTANCE: CABLEPART                                                                       
 LARGEST INCREMENT OF ROTATION      2.813E-03   AT NODE       1001   DOF  5
   INSTANCE: CABLEPART                                                                       
 LARGEST CORRECTION TO ROTATION     1.172E-04   AT NODE       1001   DOF  5
   INSTANCE: CABLEPART                                                                       
          ROTATION CORRECTION TOO LARGE COMPARED TO ROTATION INCREMENT

  NUMBER OF EQUATIONS =      1284     NUMBER OF FLOATING PT. OPERATIONS =  2.88E+05

  USING THE DIRECT SOLVER WITH   4 PROCESSORS

     CHECK POINT   START OF SOLVER    

     CHECK POINT  END OF SOLVER       

       ELAPSED USER TIME (SEC)      =   0.0000    
       ELAPSED SYSTEM TIME (SEC)    =   0.0000    
       ELAPSED TOTAL CPU TIME (SEC) =   0.0000    
       ELAPSED WALLCLOCK TIME (SEC) =          0

               CONVERGENCE CHECKS FOR EQUILIBRIUM ITERATION     4


 AVERAGE FORCE                       15.8       TIME AVG. FORCE        8.67    
 LARGEST RESIDUAL FORCE             1.346E-03   AT NODE       1095   DOF  1
   INSTANCE: CABLEPART                                                                       
 LARGEST INCREMENT OF DISP.        -0.137       AT NODE       1010   DOF  3
   INSTANCE: CABLEPART                                                                       
 LARGEST CORRECTION TO DISP.        9.832E-06   AT NODE       1030   DOF  3
   INSTANCE: CABLEPART                                                                       
          THE FORCE     EQUILIBRIUM EQUATIONS HAVE CONVERGED

 AVERAGE MOMENT                      4.45       TIME AVG. MOMENT       2.90    
 LARGEST RESIDUAL MOMENT            6.948E-08   AT NODE       1088   DOF  5
   INSTANCE: CABLEPART                                                                       
 LARGEST INCREMENT OF ROTATION      2.813E-03   AT NODE       1001   DOF  5
   INSTANCE: CABLEPART                                                                       
 LARGEST CORRECTION TO ROTATION    -1.012E-07   AT NODE       1025   DOF  5
   INSTANCE: CABLEPART                                                                       
          THE MOMENT    EQUILIBRIUM EQUATIONS HAVE CONVERGED
          TIME INCREMENT MAY NOW INCREASE TO    5.625E-07

 ITERATION SUMMARY FOR THE INCREMENT:   4 TOTAL ITERATIONS, OF WHICH
   0 ARE SEVERE DISCONTINUITY ITERATIONS AND  4 ARE EQUILIBRIUM ITERATIONS.

 TIME INCREMENT COMPLETED  3.750E-07,  FRACTION OF STEP COMPLETED  1.125E-06
 STEP TIME COMPLETED       1.125E-06,  TOTAL TIME COMPLETED        1.125E-06


  INCREMENT     5 STARTS. ATTEMPT NUMBER  1, TIME INCREMENT  5.625E-07

  NUMBER OF EQUATIONS =      1284     NUMBER OF FLOATING PT. OPERATIONS =  2.88E+05

  USING THE DIRECT SOLVER WITH   4 PROCESSORS

     CHECK POINT   START OF SOLVER    

     CHECK POINT  END OF SOLVER       

       ELAPSED USER TIME (SEC)      =  0.10000    
       ELAPSED SYSTEM TIME (SEC)    =   0.0000    
       ELAPSED TOTAL CPU TIME (SEC) =  0.10000    
       ELAPSED WALLCLOCK TIME (SEC) =          0

               CONVERGENCE CHECKS FOR EQUILIBRIUM ITERATION     1


 AVERAGE FORCE                      2.506E+03   TIME AVG. FORCE        508.    
 LARGEST RESIDUAL FORCE             6.118E+03   AT NODE       1086   DOF  1
   INSTANCE: CABLEPART                                                                       
 LARGEST INCREMENT OF DISP.        -0.140       AT NODE       1010   DOF  3
   INSTANCE: CABLEPART                                                                       
 LARGEST CORRECTION TO DISP.        6.503E-02   AT NODE       1098   DOF  3
   INSTANCE: CABLEPART                                                                       
          FORCE     EQUILIBRIUM NOT ACHIEVED WITHIN TOLERANCE.

 AVERAGE MOMENT                      5.56       TIME AVG. MOMENT       3.43    
 LARGEST RESIDUAL MOMENT            6.771E-03   AT NODE       1106   DOF  5
   INSTANCE: CABLEPART                                                                       
 LARGEST INCREMENT OF ROTATION      2.925E-03   AT NODE       1001   DOF  5
   INSTANCE: CABLEPART                                                                       
 LARGEST CORRECTION TO ROTATION     1.294E-03   AT NODE       1107   DOF  5
   INSTANCE: CABLEPART                                                                       
          ROTATION CORRECTION TOO LARGE COMPARED TO ROTATION INCREMENT

  NUMBER OF EQUATIONS =      1284     NUMBER OF FLOATING PT. OPERATIONS =  2.88E+05

  USING THE DIRECT SOLVER WITH   4 PROCESSORS

     CHECK POINT   START OF SOLVER    

     CHECK POINT  END OF SOLVER       

       ELAPSED USER TIME (SEC)      =  0.10000    
       ELAPSED SYSTEM TIME (SEC)    =   0.0000    
       ELAPSED TOTAL CPU TIME (SEC) =  0.10000    
       ELAPSED WALLCLOCK TIME (SEC) =          0

               CONVERGENCE CHECKS FOR EQUILIBRIUM ITERATION     2


 AVERAGE FORCE                       23.8       TIME AVG. FORCE        11.7    
 LARGEST RESIDUAL FORCE             0.399       AT NODE       1042   DOF  1
   INSTANCE: CABLEPART                                                                       
 LARGEST INCREMENT OF DISP.        -0.140       AT NODE       1010   DOF  3
   INSTANCE: CABLEPART                                                                       
 LARGEST CORRECTION TO DISP.        1.336E-03   AT NODE       1054   DOF  3
   INSTANCE: CABLEPART                                                                       
          FORCE     EQUILIBRIUM NOT ACHIEVED WITHIN TOLERANCE.

 AVERAGE MOMENT                      5.60       TIME AVG. MOMENT       3.44    
 LARGEST RESIDUAL MOMENT           -9.904E-06   AT NODE       1020   DOF  5
   INSTANCE: CABLEPART                                                                       
 LARGEST INCREMENT OF ROTATION      2.926E-03   AT NODE       1001   DOF  5
   INSTANCE: CABLEPART                                                                       
 LARGEST CORRECTION TO ROTATION    -8.609E-06   AT NODE       1046   DOF  5
   INSTANCE: CABLEPART                                                                       
          THE MOMENT    EQUILIBRIUM EQUATIONS HAVE CONVERGED

  NUMBER OF EQUATIONS =      1284     NUMBER OF FLOATING PT. OPERATIONS =  2.88E+05

  USING THE DIRECT SOLVER WITH   4 PROCESSORS

     CHECK POINT   START OF SOLVER    

     CHECK POINT  END OF SOLVER       

       ELAPSED USER TIME (SEC)      =   0.0000    
       ELAPSED SYSTEM TIME (SEC)    =   0.0000    
       ELAPSED TOTAL CPU TIME (SEC) =   0.0000    
       ELAPSED WALLCLOCK TIME (SEC) =          0

               CONVERGENCE CHECKS FOR EQUILIBRIUM ITERATION     3


 AVERAGE FORCE                       101.       TIME AVG. FORCE        27.1    
 LARGEST RESIDUAL FORCE              180.       AT NODE       1085   DOF  1
   INSTANCE: CABLEPART                                                                       
 LARGEST INCREMENT OF DISP.        -0.151       AT NODE       1098   DOF  3
   INSTANCE: CABLEPART                                                                       
 LARGEST CORRECTION TO DISP.       -1.085E-02   AT NODE       1097   DOF  3
   INSTANCE: CABLEPART                                                                       
          FORCE     EQUILIBRIUM NOT ACHIEVED WITHIN TOLERANCE.

 AVERAGE MOMENT                      5.68       TIME AVG. MOMENT       3.46    
 LARGEST RESIDUAL MOMENT           -1.870E-04   AT NODE       1088   DOF  6
   INSTANCE: CABLEPART                                                                       
 LARGEST INCREMENT OF ROTATION     -3.138E-03   AT NODE       1107   DOF  5
   INSTANCE: CABLEPART                                                                       
 LARGEST CORRECTION TO ROTATION    -2.119E-04   AT NODE       1107   DOF  5
   INSTANCE: CABLEPART                                                                       
          ROTATION CORRECTION TOO LARGE COMPARED TO ROTATION INCREMENT

  NUMBER OF EQUATIONS =      1284     NUMBER OF FLOATING PT. OPERATIONS =  2.88E+05

  USING THE DIRECT SOLVER WITH   4 PROCESSORS

     CHECK POINT   START OF SOLVER    

     CHECK POINT  END OF SOLVER       

       ELAPSED USER TIME (SEC)      =   0.0000    
       ELAPSED SYSTEM TIME (SEC)    =   0.0000    
       ELAPSED TOTAL CPU TIME (SEC) =   0.0000    
       ELAPSED WALLCLOCK TIME (SEC) =          0

               CONVERGENCE CHECKS FOR EQUILIBRIUM ITERATION     4


 AVERAGE FORCE                       23.7       TIME AVG. FORCE        11.7    
 LARGEST RESIDUAL FORCE            -1.560E-03   AT NODE       1004   DOF  1
   INSTANCE: CABLEPART                                                                       
 LARGEST INCREMENT OF DISP.        -0.151       AT NODE       1098   DOF  3
   INSTANCE: CABLEPART                                                                       
 LARGEST CORRECTION TO DISP.        1.713E-05   AT NODE       1032   DOF  3
   INSTANCE: CABLEPART                                                                       
          THE FORCE     EQUILIBRIUM EQUATIONS HAVE CONVERGED

 AVERAGE MOMENT                      5.68       TIME AVG. MOMENT       3.46    
 LARGEST RESIDUAL MOMENT           -2.928E-07   AT NODE       1020   DOF  5
   INSTANCE: CABLEPART                                                                       
 LARGEST INCREMENT OF ROTATION     -3.138E-03   AT NODE       1107   DOF  5
   INSTANCE: CABLEPART                                                                       
 LARGEST CORRECTION TO ROTATION    -1.525E-07   AT NODE       1025   DOF  5
   INSTANCE: CABLEPART                                                                       
          THE MOMENT    EQUILIBRIUM EQUATIONS HAVE CONVERGED
          TIME INCREMENT MAY NOW INCREASE TO    8.437E-07

 ITERATION SUMMARY FOR THE INCREMENT:   4 TOTAL ITERATIONS, OF WHICH
   0 ARE SEVERE DISCONTINUITY ITERATIONS AND  4 ARE EQUILIBRIUM ITERATIONS.

 TIME INCREMENT COMPLETED  5.625E-07,  FRACTION OF STEP COMPLETED  1.687E-06
 STEP TIME COMPLETED       1.687E-06,  TOTAL TIME COMPLETED        1.687E-06


  INCREMENT     6 STARTS. ATTEMPT NUMBER  1, TIME INCREMENT  8.437E-07

  NUMBER OF EQUATIONS =      1284     NUMBER OF FLOATING PT. OPERATIONS =  2.88E+05

  USING THE DIRECT SOLVER WITH   4 PROCESSORS

     CHECK POINT   START OF SOLVER    

     CHECK POINT  END OF SOLVER       

       ELAPSED USER TIME (SEC)      =  0.10000    
       ELAPSED SYSTEM TIME (SEC)    =  0.10000    
       ELAPSED TOTAL CPU TIME (SEC) =  0.20000    
       ELAPSED WALLCLOCK TIME (SEC) =          0

               CONVERGENCE CHECKS FOR EQUILIBRIUM ITERATION     1


 AVERAGE FORCE                      4.509E+03   TIME AVG. FORCE        761.    
 LARGEST RESIDUAL FORCE             1.110E+04   AT NODE       1086   DOF  1
   INSTANCE: CABLEPART                                                                       
 LARGEST INCREMENT OF DISP.        -0.138       AT NODE       1010   DOF  3
   INSTANCE: CABLEPART                                                                       
 LARGEST CORRECTION TO DISP.        8.830E-02   AT NODE       1098   DOF  3
   INSTANCE: CABLEPART                                                                       
          FORCE     EQUILIBRIUM NOT ACHIEVED WITHIN TOLERANCE.

 AVERAGE MOMENT                      6.86       TIME AVG. MOMENT       4.02    
 LARGEST RESIDUAL MOMENT            1.129E-02   AT NODE       1106   DOF  5
   INSTANCE: CABLEPART                                                                       
 LARGEST INCREMENT OF ROTATION      2.932E-03   AT NODE       1001   DOF  5
   INSTANCE: CABLEPART                                                                       
 LARGEST CORRECTION TO ROTATION     1.775E-03   AT NODE       1107   DOF  5
   INSTANCE: CABLEPART                                                                       
          ROTATION CORRECTION TOO LARGE COMPARED TO ROTATION INCREMENT

  NUMBER OF EQUATIONS =      1284     NUMBER OF FLOATING PT. OPERATIONS =  2.88E+05

  USING THE DIRECT SOLVER WITH   4 PROCESSORS

     CHECK POINT   START OF SOLVER    

     CHECK POINT  END OF SOLVER       

       ELAPSED USER TIME (SEC)      =   0.0000    
       ELAPSED SYSTEM TIME (SEC)    =   0.0000    
       ELAPSED TOTAL CPU TIME (SEC) =   0.0000    
       ELAPSED WALLCLOCK TIME (SEC) =          0

               CONVERGENCE CHECKS FOR EQUILIBRIUM ITERATION     2


 AVERAGE FORCE                       35.7       TIME AVG. FORCE        15.7    
 LARGEST RESIDUAL FORCE            -0.929       AT NODE       1069   DOF  1
   INSTANCE: CABLEPART                                                                       
 LARGEST INCREMENT OF DISP.        -0.138       AT NODE       1010   DOF  3
   INSTANCE: CABLEPART                                                                       
 LARGEST CORRECTION TO DISP.        2.411E-03   AT NODE       1054   DOF  3
   INSTANCE: CABLEPART                                                                       
          FORCE     EQUILIBRIUM NOT ACHIEVED WITHIN TOLERANCE.

 AVERAGE MOMENT                      6.84       TIME AVG. MOMENT       4.02    
 LARGEST RESIDUAL MOMENT           -2.392E-05   AT NODE       1020   DOF  5
   INSTANCE: CABLEPART                                                                       
 LARGEST INCREMENT OF ROTATION      2.933E-03   AT NODE       1001   DOF  5
   INSTANCE: CABLEPART                                                                       
 LARGEST CORRECTION TO ROTATION     1.285E-05   AT NODE       1065   DOF  5
   INSTANCE: CABLEPART                                                                       
          THE MOMENT    EQUILIBRIUM EQUATIONS HAVE CONVERGED

  NUMBER OF EQUATIONS =      1284     NUMBER OF FLOATING PT. OPERATIONS =  2.88E+05

  USING THE DIRECT SOLVER WITH   4 PROCESSORS

     CHECK POINT   START OF SOLVER    

     CHECK POINT  END OF SOLVER       

       ELAPSED USER TIME (SEC)      =   0.0000    
       ELAPSED SYSTEM TIME (SEC)    =   0.0000    
       ELAPSED TOTAL CPU TIME (SEC) =   0.0000    
       ELAPSED WALLCLOCK TIME (SEC) =          0

               CONVERGENCE CHECKS FOR EQUILIBRIUM ITERATION     3


 AVERAGE FORCE                       217.       TIME AVG. FORCE        46.0    
 LARGEST RESIDUAL FORCE              430.       AT NODE       1086   DOF  1
   INSTANCE: CABLEPART                                                                       
 LARGEST INCREMENT OF DISP.        -0.156       AT NODE       1098   DOF  3
   INSTANCE: CABLEPART                                                                       
 LARGEST CORRECTION TO DISP.       -1.719E-02   AT NODE       1098   DOF  3
   INSTANCE: CABLEPART                                                                       
          FORCE     EQUILIBRIUM NOT ACHIEVED WITHIN TOLERANCE.

 AVERAGE MOMENT                      7.02       TIME AVG. MOMENT       4.05    
 LARGEST RESIDUAL MOMENT           -3.676E-04   AT NODE       1088   DOF  6
   INSTANCE: CABLEPART                                                                       
 LARGEST INCREMENT OF ROTATION     -3.274E-03   AT NODE       1107   DOF  5
   INSTANCE: CABLEPART                                                                       
 LARGEST CORRECTION TO ROTATION    -3.406E-04   AT NODE       1107   DOF  5
   INSTANCE: CABLEPART                                                                       
          ROTATION CORRECTION TOO LARGE COMPARED TO ROTATION INCREMENT

  NUMBER OF EQUATIONS =      1284     NUMBER OF FLOATING PT. OPERATIONS =  2.88E+05

  USING THE DIRECT SOLVER WITH   4 PROCESSORS

     CHECK POINT   START OF SOLVER    

     CHECK POINT  END OF SOLVER       

       ELAPSED USER TIME (SEC)      =  0.10000    
       ELAPSED SYSTEM TIME (SEC)    =  0.10000    
       ELAPSED TOTAL CPU TIME (SEC) =  0.20000    
       ELAPSED WALLCLOCK TIME (SEC) =          0

               CONVERGENCE CHECKS FOR EQUILIBRIUM ITERATION     4


 AVERAGE FORCE                       35.6       TIME AVG. FORCE        15.7    
 LARGEST RESIDUAL FORCE             1.925E-03   AT NODE       1103   DOF  1
   INSTANCE: CABLEPART                                                                       
 LARGEST INCREMENT OF DISP.        -0.156       AT NODE       1098   DOF  3
   INSTANCE: CABLEPART                                                                       
 LARGEST CORRECTION TO DISP.        2.909E-05   AT NODE       1070   DOF  3
   INSTANCE: CABLEPART                                                                       
          THE FORCE     EQUILIBRIUM EQUATIONS HAVE CONVERGED

 AVERAGE MOMENT                      7.02       TIME AVG. MOMENT       4.05    
 LARGEST RESIDUAL MOMENT            9.396E-07   AT NODE       1088   DOF  5
   INSTANCE: CABLEPART                                                                       
 LARGEST INCREMENT OF ROTATION     -3.274E-03   AT NODE       1107   DOF  5
   INSTANCE: CABLEPART                                                                       
 LARGEST CORRECTION TO ROTATION     2.124E-07   AT NODE       1083   DOF  5
   INSTANCE: CABLEPART                                                                       
          THE MOMENT    EQUILIBRIUM EQUATIONS HAVE CONVERGED
          TIME INCREMENT MAY NOW INCREASE TO    1.266E-06

 ITERATION SUMMARY FOR THE INCREMENT:   4 TOTAL ITERATIONS, OF WHICH
   0 ARE SEVERE DISCONTINUITY ITERATIONS AND  4 ARE EQUILIBRIUM ITERATIONS.

 TIME INCREMENT COMPLETED  8.437E-07,  FRACTION OF STEP COMPLETED  2.531E-06
 STEP TIME COMPLETED       2.531E-06,  TOTAL TIME COMPLETED        2.531E-06


  INCREMENT     7 STARTS. ATTEMPT NUMBER  1, TIME INCREMENT  1.266E-06

  NUMBER OF EQUATIONS =      1284     NUMBER OF FLOATING PT. OPERATIONS =  2.88E+05

  USING THE DIRECT SOLVER WITH   4 PROCESSORS

     CHECK POINT   START OF SOLVER    

     CHECK POINT  END OF SOLVER       

       ELAPSED USER TIME (SEC)      =  0.10000    
       ELAPSED SYSTEM TIME (SEC)    =   0.0000    
       ELAPSED TOTAL CPU TIME (SEC) =  0.10000    
       ELAPSED WALLCLOCK TIME (SEC) =          0

               CONVERGENCE CHECKS FOR EQUILIBRIUM ITERATION     1


 AVERAGE FORCE                      6.767E+03   TIME AVG. FORCE        980.    
 LARGEST RESIDUAL FORCE             1.722E+04   AT NODE       1103   DOF  1
   INSTANCE: CABLEPART                                                                       
 LARGEST INCREMENT OF DISP.        -0.125       AT NODE       1010   DOF  3
   INSTANCE: CABLEPART                                                                       
 LARGEST CORRECTION TO DISP.        0.108       AT NODE       1098   DOF  3
   INSTANCE: CABLEPART                                                                       
          FORCE     EQUILIBRIUM NOT ACHIEVED WITHIN TOLERANCE.

 AVERAGE MOMENT                      8.15       TIME AVG. MOMENT       4.64    
 LARGEST RESIDUAL MOMENT            1.474E-02   AT NODE       1106   DOF  5
   INSTANCE: CABLEPART                                                                       
 LARGEST INCREMENT OF ROTATION      2.711E-03   AT NODE       1001   DOF  5
   INSTANCE: CABLEPART                                                                       
 LARGEST CORRECTION TO ROTATION     2.200E-03   AT NODE       1107   DOF  5
   INSTANCE: CABLEPART                                                                       
          ROTATION CORRECTION TOO LARGE COMPARED TO ROTATION INCREMENT

  NUMBER OF EQUATIONS =      1284     NUMBER OF FLOATING PT. OPERATIONS =  2.88E+05

  USING THE DIRECT SOLVER WITH   4 PROCESSORS

     CHECK POINT   START OF SOLVER    

     CHECK POINT  END OF SOLVER       

       ELAPSED USER TIME (SEC)      =   0.0000    
       ELAPSED SYSTEM TIME (SEC)    =   0.0000    
       ELAPSED TOTAL CPU TIME (SEC) =   0.0000    
       ELAPSED WALLCLOCK TIME (SEC) =          0

               CONVERGENCE CHECKS FOR EQUILIBRIUM ITERATION     2


 AVERAGE FORCE                       53.6       TIME AVG. FORCE        21.1    
 LARGEST RESIDUAL FORCE             -1.25       AT NODE       1072   DOF  1
   INSTANCE: CABLEPART                                                                       
 LARGEST INCREMENT OF DISP.        -0.125       AT NODE       1010   DOF  3
   INSTANCE: CABLEPART                                                                       
 LARGEST CORRECTION TO DISP.        3.226E-03   AT NODE       1054   DOF  3
   INSTANCE: CABLEPART                                                                       
          FORCE     EQUILIBRIUM NOT ACHIEVED WITHIN TOLERANCE.

 AVERAGE MOMENT                      8.21       TIME AVG. MOMENT       4.64    
 LARGEST RESIDUAL MOMENT            4.704E-05   AT NODE       1088   DOF  5
   INSTANCE: CABLEPART                                                                       
 LARGEST INCREMENT OF ROTATION      2.712E-03   AT NODE       1001   DOF  5
   INSTANCE: CABLEPART                                                                       
 LARGEST CORRECTION TO ROTATION     1.391E-05   AT NODE       1067   DOF  5
   INSTANCE: CABLEPART                                                                       
          THE MOMENT    EQUILIBRIUM EQUATIONS HAVE CONVERGED

  NUMBER OF EQUATIONS =      1284     NUMBER OF FLOATING PT. OPERATIONS =  2.88E+05

  USING THE DIRECT SOLVER WITH   4 PROCESSORS

     CHECK POINT   START OF SOLVER    

     CHECK POINT  END OF SOLVER       

       ELAPSED USER TIME (SEC)      =  0.10000    
       ELAPSED SYSTEM TIME (SEC)    =   0.0000    
       ELAPSED TOTAL CPU TIME (SEC) =  0.10000    
       ELAPSED WALLCLOCK TIME (SEC) =          0

               CONVERGENCE CHECKS FOR EQUILIBRIUM ITERATION     3


 AVERAGE FORCE                       397.       TIME AVG. FORCE        70.2    
 LARGEST RESIDUAL FORCE              830.       AT NODE       1086   DOF  1
   INSTANCE: CABLEPART                                                                       
 LARGEST INCREMENT OF DISP.        -0.149       AT NODE       1010   DOF  3
   INSTANCE: CABLEPART                                                                       
 LARGEST CORRECTION TO DISP.       -2.400E-02   AT NODE       1098   DOF  3
   INSTANCE: CABLEPART                                                                       
          FORCE     EQUILIBRIUM NOT ACHIEVED WITHIN TOLERANCE.

 AVERAGE MOMENT                      8.46       TIME AVG. MOMENT       4.68    
 LARGEST RESIDUAL MOMENT           -5.853E-04   AT NODE       1088   DOF  6
   INSTANCE: CABLEPART                                                                       
 LARGEST INCREMENT OF ROTATION      3.194E-03   AT NODE       1001   DOF  5
   INSTANCE: CABLEPART                                                                       
 LARGEST CORRECTION TO ROTATION    -4.819E-04   AT NODE       1107   DOF  5
   INSTANCE: CABLEPART                                                                       
          ROTATION CORRECTION TOO LARGE COMPARED TO ROTATION INCREMENT

  NUMBER OF EQUATIONS =      1284     NUMBER OF FLOATING PT. OPERATIONS =  2.88E+05

  USING THE DIRECT SOLVER WITH   4 PROCESSORS

     CHECK POINT   START OF SOLVER    

     CHECK POINT  END OF SOLVER       

       ELAPSED USER TIME (SEC)      =  0.10000    
       ELAPSED SYSTEM TIME (SEC)    =   0.0000    
       ELAPSED TOTAL CPU TIME (SEC) =  0.10000    
       ELAPSED WALLCLOCK TIME (SEC) =          0

               CONVERGENCE CHECKS FOR EQUILIBRIUM ITERATION     4


 AVERAGE FORCE                       53.5       TIME AVG. FORCE        21.1    
 LARGEST RESIDUAL FORCE             1.533E-03   AT NODE       1012   DOF  1
   INSTANCE: CABLEPART                                                                       
 LARGEST INCREMENT OF DISP.        -0.149       AT NODE       1010   DOF  3
   INSTANCE: CABLEPART                                                                       
 LARGEST CORRECTION TO DISP.        7.133E-05   AT NODE       1054   DOF  3
   INSTANCE: CABLEPART                                                                       
          THE FORCE     EQUILIBRIUM EQUATIONS HAVE CONVERGED

 AVERAGE MOMENT                      8.46       TIME AVG. MOMENT       4.68    
 LARGEST RESIDUAL MOMENT            2.319E-06   AT NODE       1088   DOF  5
   INSTANCE: CABLEPART                                                                       
 LARGEST INCREMENT OF ROTATION      3.194E-03   AT NODE       1001   DOF  5
   INSTANCE: CABLEPART                                                                       
 LARGEST CORRECTION TO ROTATION    -2.392E-07   AT NODE       1042   DOF  5
   INSTANCE: CABLEPART                                                                       
          THE MOMENT    EQUILIBRIUM EQUATIONS HAVE CONVERGED
          TIME INCREMENT MAY NOW INCREASE TO    1.898E-06

 ITERATION SUMMARY FOR THE INCREMENT:   4 TOTAL ITERATIONS, OF WHICH
   0 ARE SEVERE DISCONTINUITY ITERATIONS AND  4 ARE EQUILIBRIUM ITERATIONS.

 TIME INCREMENT COMPLETED  1.266E-06,  FRACTION OF STEP COMPLETED  3.797E-06
 STEP TIME COMPLETED       3.797E-06,  TOTAL TIME COMPLETED        3.797E-06


  INCREMENT     8 STARTS. ATTEMPT NUMBER  1, TIME INCREMENT  1.898E-06

  NUMBER OF EQUATIONS =      1284     NUMBER OF FLOATING PT. OPERATIONS =  2.88E+05

  USING THE DIRECT SOLVER WITH   4 PROCESSORS

     CHECK POINT   START OF SOLVER    

     CHECK POINT  END OF SOLVER       

       ELAPSED USER TIME (SEC)      =  0.10000    
       ELAPSED SYSTEM TIME (SEC)    =   0.0000    
       ELAPSED TOTAL CPU TIME (SEC) =  0.10000    
       ELAPSED WALLCLOCK TIME (SEC) =          0

               CONVERGENCE CHECKS FOR EQUILIBRIUM ITERATION     1


 AVERAGE FORCE                      8.327E+03   TIME AVG. FORCE       1.059E+03
 LARGEST RESIDUAL FORCE            -2.166E+04   AT NODE       1005   DOF  1
   INSTANCE: CABLEPART                                                                       
 LARGEST INCREMENT OF DISP.        -0.104       AT NODE       1097   DOF  3
   INSTANCE: CABLEPART                                                                       
 LARGEST CORRECTION TO DISP.        0.120       AT NODE       1010   DOF  3
   INSTANCE: CABLEPART                                                                       
          FORCE     EQUILIBRIUM NOT ACHIEVED WITHIN TOLERANCE.

 AVERAGE MOMENT                      9.42       TIME AVG. MOMENT       5.27    
 LARGEST RESIDUAL MOMENT           -1.504E-02   AT NODE       1002   DOF  5
   INSTANCE: CABLEPART                                                                       
 LARGEST INCREMENT OF ROTATION     -2.332E-03   AT NODE       1107   DOF  5
   INSTANCE: CABLEPART                                                                       
 LARGEST CORRECTION TO ROTATION    -2.458E-03   AT NODE       1001   DOF  5
   INSTANCE: CABLEPART                                                                       
          ROTATION CORRECTION TOO LARGE COMPARED TO ROTATION INCREMENT

  NUMBER OF EQUATIONS =      1284     NUMBER OF FLOATING PT. OPERATIONS =  2.88E+05

  USING THE DIRECT SOLVER WITH   4 PROCESSORS

     CHECK POINT   START OF SOLVER    

     CHECK POINT  END OF SOLVER       

       ELAPSED USER TIME (SEC)      =   0.0000    
       ELAPSED SYSTEM TIME (SEC)    =   0.0000    
       ELAPSED TOTAL CPU TIME (SEC) =   0.0000    
       ELAPSED WALLCLOCK TIME (SEC) =          0

               CONVERGENCE CHECKS FOR EQUILIBRIUM ITERATION     2


 AVERAGE FORCE                       80.5       TIME AVG. FORCE        28.5    
 LARGEST RESIDUAL FORCE             -2.33       AT NODE       1030   DOF  1
   INSTANCE: CABLEPART                                                                       
 LARGEST INCREMENT OF DISP.        -0.104       AT NODE       1097   DOF  3
   INSTANCE: CABLEPART                                                                       
 LARGEST CORRECTION TO DISP.        3.823E-03   AT NODE       1054   DOF  3
   INSTANCE: CABLEPART                                                                       
          FORCE     EQUILIBRIUM NOT ACHIEVED WITHIN TOLERANCE.

 AVERAGE MOMENT                      9.53       TIME AVG. MOMENT       5.29    
 LARGEST RESIDUAL MOMENT            7.599E-05   AT NODE       1088   DOF  5
   INSTANCE: CABLEPART                                                                       
 LARGEST INCREMENT OF ROTATION     -2.334E-03   AT NODE       1107   DOF  5
   INSTANCE: CABLEPART                                                                       
 LARGEST CORRECTION TO ROTATION     1.464E-05   AT NODE       1065   DOF  5
   INSTANCE: CABLEPART                                                                       
          THE MOMENT    EQUILIBRIUM EQUATIONS HAVE CONVERGED

  NUMBER OF EQUATIONS =      1284     NUMBER OF FLOATING PT. OPERATIONS =  2.88E+05

  USING THE DIRECT SOLVER WITH   4 PROCESSORS

     CHECK POINT   START OF SOLVER    

     CHECK POINT  END OF SOLVER       

       ELAPSED USER TIME (SEC)      =  0.10000    
       ELAPSED SYSTEM TIME (SEC)    =   0.0000    
       ELAPSED TOTAL CPU TIME (SEC) =  0.10000    
       ELAPSED WALLCLOCK TIME (SEC) =          0

               CONVERGENCE CHECKS FOR EQUILIBRIUM ITERATION     3


 AVERAGE FORCE                       586.       TIME AVG. FORCE        91.6    
 LARGEST RESIDUAL FORCE            -1.288E+03   AT NODE       1005   DOF  1
   INSTANCE: CABLEPART                                                                       
 LARGEST INCREMENT OF DISP.        -0.134       AT NODE       1011   DOF  3
   INSTANCE: CABLEPART                                                                       
 LARGEST CORRECTION TO DISP.       -2.946E-02   AT NODE       1010   DOF  3
   INSTANCE: CABLEPART                                                                       
          FORCE     EQUILIBRIUM NOT ACHIEVED WITHIN TOLERANCE.

 AVERAGE MOMENT                      9.76       TIME AVG. MOMENT       5.32    
 LARGEST RESIDUAL MOMENT            7.547E-04   AT NODE       1020   DOF  6
   INSTANCE: CABLEPART                                                                       
 LARGEST INCREMENT OF ROTATION     -2.932E-03   AT NODE       1107   DOF  5
   INSTANCE: CABLEPART                                                                       
 LARGEST CORRECTION TO ROTATION     5.981E-04   AT NODE       1001   DOF  5
   INSTANCE: CABLEPART                                                                       
          ROTATION CORRECTION TOO LARGE COMPARED TO ROTATION INCREMENT

  NUMBER OF EQUATIONS =      1284     NUMBER OF FLOATING PT. OPERATIONS =  2.88E+05

  USING THE DIRECT SOLVER WITH   4 PROCESSORS

     CHECK POINT   START OF SOLVER    

     CHECK POINT  END OF SOLVER       

       ELAPSED USER TIME (SEC)      =   0.0000    
       ELAPSED SYSTEM TIME (SEC)    =   0.0000    
       ELAPSED TOTAL CPU TIME (SEC) =   0.0000    
       ELAPSED WALLCLOCK TIME (SEC) =          0

               CONVERGENCE CHECKS FOR EQUILIBRIUM ITERATION     4


 AVERAGE FORCE                       80.3       TIME AVG. FORCE        28.5    
 LARGEST RESIDUAL FORCE            -1.416E-03   AT NODE       1099   DOF  1
   INSTANCE: CABLEPART                                                                       
 LARGEST INCREMENT OF DISP.        -0.134       AT NODE       1011   DOF  3
   INSTANCE: CABLEPART                                                                       
 LARGEST CORRECTION TO DISP.        1.192E-04   AT NODE       1054   DOF  3
   INSTANCE: CABLEPART                                                                       
          THE FORCE     EQUILIBRIUM EQUATIONS HAVE CONVERGED

 AVERAGE MOMENT                      9.76       TIME AVG. MOMENT       5.32    
[...]

  USING THE DIRECT SOLVER WITH   4 PROCESSORS

     CHECK POINT   START OF SOLVER    

     CHECK POINT  END OF SOLVER       

       ELAPSED USER TIME (SEC)      =   0.0000    
       ELAPSED SYSTEM TIME (SEC)    =   0.0000    
       ELAPSED TOTAL CPU TIME (SEC) =   0.0000    
       ELAPSED WALLCLOCK TIME (SEC) =          0

               CONVERGENCE CHECKS FOR EQUILIBRIUM ITERATION     1


 AVERAGE FORCE                      1.974E+07   TIME AVG. FORCE       1.425E+07
 LARGEST RESIDUAL FORCE            -1.516E+04   AT NODE       1021   DOF  1
   INSTANCE: CABLEPART                                                                       
 LARGEST INCREMENT OF DISP.        -0.623       AT NODE       1054   DOF  3
   INSTANCE: CABLEPART                                                                       
 LARGEST CORRECTION TO DISP.       -4.371E-02   AT NODE       1097   DOF  3
   INSTANCE: CABLEPART                                                                       
 ESTIMATE OF DISP.    CORRECTION   -1.241E-03
 FORCE     EQUILIB. ACCEPTED BASED ON SMALL RESIDUAL AND ESTIMATED CORRECTION

 AVERAGE MOMENT                      31.0       TIME AVG. MOMENT       37.5    
 LARGEST RESIDUAL MOMENT            3.483E-02   AT NODE       1087   DOF  5
   INSTANCE: CABLEPART                                                                       
 LARGEST INCREMENT OF ROTATION      3.331E-03   AT NODE       1020   DOF  5
   INSTANCE: CABLEPART                                                                       
 LARGEST CORRECTION TO ROTATION     1.039E-03   AT NODE       1088   DOF  5
   INSTANCE: CABLEPART                                                                       
          ROTATION CORRECTION TOO LARGE COMPARED TO ROTATION INCREMENT

  NUMBER OF EQUATIONS =      1284     NUMBER OF FLOATING PT. OPERATIONS =  2.88E+05

  USING THE DIRECT SOLVER WITH   4 PROCESSORS

     CHECK POINT   START OF SOLVER    

     CHECK POINT  END OF SOLVER       

       ELAPSED USER TIME (SEC)      =   0.0000    
       ELAPSED SYSTEM TIME (SEC)    =   0.0000    
       ELAPSED TOTAL CPU TIME (SEC) =   0.0000    
       ELAPSED WALLCLOCK TIME (SEC) =          0

               CONVERGENCE CHECKS FOR EQUILIBRIUM ITERATION     2


 AVERAGE FORCE                      1.974E+07   TIME AVG. FORCE       1.425E+07
 LARGEST RESIDUAL FORCE              256.       AT NODE       1087   DOF  1
   INSTANCE: CABLEPART                                                                       
 LARGEST INCREMENT OF DISP.        -0.624       AT NODE       1054   DOF  3
   INSTANCE: CABLEPART                                                                       
 LARGEST CORRECTION TO DISP.        5.218E-03   AT NODE       1097   DOF  3
   INSTANCE: CABLEPART                                                                       
          THE FORCE     EQUILIBRIUM EQUATIONS HAVE CONVERGED

 AVERAGE MOMENT                      31.1       TIME AVG. MOMENT       37.5    
 LARGEST RESIDUAL MOMENT            1.277E-03   AT NODE       1087   DOF  4
   INSTANCE: CABLEPART                                                                       
 LARGEST INCREMENT OF ROTATION     -3.454E-03   AT NODE       1088   DOF  5
   INSTANCE: CABLEPART                                                                       
 LARGEST CORRECTION TO ROTATION    -1.229E-04   AT NODE       1088   DOF  5
   INSTANCE: CABLEPART                                                                       
 ESTIMATE OF ROTATION CORRECTION   -4.505E-06
 MOMENT    EQUILIB. ACCEPTED BASED ON SMALL RESIDUAL AND ESTIMATED CORRECTION
          TIME INCREMENT MAY NOW INCREASE TO    0.130    

 ITERATION SUMMARY FOR THE INCREMENT:   2 TOTAL ITERATIONS, OF WHICH
   0 ARE SEVERE DISCONTINUITY ITERATIONS AND  2 ARE EQUILIBRIUM ITERATIONS.

 TIME INCREMENT COMPLETED  8.650E-02,  FRACTION OF STEP COMPLETED  0.258    
 STEP TIME COMPLETED       0.258    ,  TOTAL TIME COMPLETED         1.26    


  INCREMENT    14 STARTS. ATTEMPT NUMBER  1, TIME INCREMENT  0.130    

  NUMBER OF EQUATIONS =      1284     NUMBER OF FLOATING PT. OPERATIONS =  2.88E+05

  USING THE DIRECT SOLVER WITH   4 PROCESSORS

     CHECK POINT   START OF SOLVER    

     CHECK POINT  END OF SOLVER       

       ELAPSED USER TIME (SEC)      =   0.0000    
       ELAPSED SYSTEM TIME (SEC)    =  0.10000    
       ELAPSED TOTAL CPU TIME (SEC) =  0.10000    
       ELAPSED WALLCLOCK TIME (SEC) =          0

               CONVERGENCE CHECKS FOR EQUILIBRIUM ITERATION     1


 AVERAGE FORCE                      2.324E+07   TIME AVG. FORCE       1.489E+07
 LARGEST RESIDUAL FORCE             3.780E+04   AT NODE       1087   DOF  1
   INSTANCE: CABLEPART                                                                       
 LARGEST INCREMENT OF DISP.        -0.896       AT NODE       1054   DOF  3
   INSTANCE: CABLEPART                                                                       
 LARGEST CORRECTION TO DISP.       -6.837E-02   AT NODE       1011   DOF  3
   INSTANCE: CABLEPART                                                                       
 ESTIMATE OF DISP.    CORRECTION   -3.626E-03
 FORCE     EQUILIB. ACCEPTED BASED ON SMALL RESIDUAL AND ESTIMATED CORRECTION

 AVERAGE MOMENT                      29.2       TIME AVG. MOMENT       36.9    
 LARGEST RESIDUAL MOMENT           -4.721E-02   AT NODE       1021   DOF  5
   INSTANCE: CABLEPART                                                                       
 LARGEST INCREMENT OF ROTATION     -3.553E-03   AT NODE       1088   DOF  5
   INSTANCE: CABLEPART                                                                       
 LARGEST CORRECTION TO ROTATION    -1.627E-03   AT NODE       1020   DOF  5
   INSTANCE: CABLEPART                                                                       
          ROTATION CORRECTION TOO LARGE COMPARED TO ROTATION INCREMENT

  NUMBER OF EQUATIONS =      1284     NUMBER OF FLOATING PT. OPERATIONS =  2.88E+05

  USING THE DIRECT SOLVER WITH   4 PROCESSORS

     CHECK POINT   START OF SOLVER    

     CHECK POINT  END OF SOLVER       

       ELAPSED USER TIME (SEC)      =   0.0000    
       ELAPSED SYSTEM TIME (SEC)    =   0.0000    
       ELAPSED TOTAL CPU TIME (SEC) =   0.0000    
       ELAPSED WALLCLOCK TIME (SEC) =          0

               CONVERGENCE CHECKS FOR EQUILIBRIUM ITERATION     2


 AVERAGE FORCE                      2.324E+07   TIME AVG. FORCE       1.489E+07
 LARGEST RESIDUAL FORCE            -1.002E+03   AT NODE       1021   DOF  1
   INSTANCE: CABLEPART                                                                       
 LARGEST INCREMENT OF DISP.        -0.898       AT NODE       1054   DOF  3
   INSTANCE: CABLEPART                                                                       
 LARGEST CORRECTION TO DISP.        1.028E-02   AT NODE       1097   DOF  3
   INSTANCE: CABLEPART                                                                       
 ESTIMATE OF DISP.    CORRECTION   -2.727E-04
 FORCE     EQUILIB. ACCEPTED BASED ON SMALL RESIDUAL AND ESTIMATED CORRECTION

 AVERAGE MOMENT                      29.0       TIME AVG. MOMENT       36.9    
 LARGEST RESIDUAL MOMENT            2.315E-03   AT NODE       1087   DOF  4
   INSTANCE: CABLEPART                                                                       
 LARGEST INCREMENT OF ROTATION      3.796E-03   AT NODE       1020   DOF  5
   INSTANCE: CABLEPART                                                                       
 LARGEST CORRECTION TO ROTATION     2.429E-04   AT NODE       1020   DOF  5
   INSTANCE: CABLEPART                                                                       
 ESTIMATE OF ROTATION CORRECTION   -1.191E-05
 MOMENT    EQUILIB. ACCEPTED BASED ON SMALL RESIDUAL AND ESTIMATED CORRECTION
          TIME INCREMENT MAY NOW INCREASE TO    0.195    

 ITERATION SUMMARY FOR THE INCREMENT:   2 TOTAL ITERATIONS, OF WHICH
   0 ARE SEVERE DISCONTINUITY ITERATIONS AND  2 ARE EQUILIBRIUM ITERATIONS.

 TIME INCREMENT COMPLETED  0.130    ,  FRACTION OF STEP COMPLETED  0.388    
 STEP TIME COMPLETED       0.388    ,  TOTAL TIME COMPLETED         1.39    


  INCREMENT    15 STARTS. ATTEMPT NUMBER  1, TIME INCREMENT  0.195    

  NUMBER OF EQUATIONS =      1284     NUMBER OF FLOATING PT. OPERATIONS =  2.88E+05

  USING THE DIRECT SOLVER WITH   4 PROCESSORS

     CHECK POINT   START OF SOLVER    

     CHECK POINT  END OF SOLVER       

       ELAPSED USER TIME (SEC)      =   0.0000    
       ELAPSED SYSTEM TIME (SEC)    =   0.0000    
       ELAPSED TOTAL CPU TIME (SEC) =   0.0000    
       ELAPSED WALLCLOCK TIME (SEC) =          0

               CONVERGENCE CHECKS FOR EQUILIBRIUM ITERATION     1


 AVERAGE FORCE                      2.841E+07   TIME AVG. FORCE       1.580E+07
 LARGEST RESIDUAL FORCE            -7.382E+04   AT NODE       1021   DOF  1
   INSTANCE: CABLEPART                                                                       
 LARGEST INCREMENT OF DISP.         -1.29       AT NODE       1054   DOF  3
   INSTANCE: CABLEPART                                                                       
 LARGEST CORRECTION TO DISP.       -9.574E-02   AT NODE       1097   DOF  3
   INSTANCE: CABLEPART                                                                       
 ESTIMATE OF DISP.    CORRECTION   -9.525E-03
 FORCE     EQUILIB. ACCEPTED BASED ON SMALL RESIDUAL AND ESTIMATED CORRECTION

 AVERAGE MOMENT                      28.1       TIME AVG. MOMENT       36.3    
 LARGEST RESIDUAL MOMENT            5.393E-02   AT NODE       1087   DOF  5
   INSTANCE: CABLEPART                                                                       
 LARGEST INCREMENT OF ROTATION      3.571E-03   AT NODE       1021   DOF  5
   INSTANCE: CABLEPART                                                                       
 LARGEST CORRECTION TO ROTATION    -2.281E-03   AT NODE       1020   DOF  5
   INSTANCE: CABLEPART                                                                       
          ROTATION CORRECTION TOO LARGE COMPARED TO ROTATION INCREMENT

  NUMBER OF EQUATIONS =      1284     NUMBER OF FLOATING PT. OPERATIONS =  2.88E+05

  USING THE DIRECT SOLVER WITH   4 PROCESSORS

     CHECK POINT   START OF SOLVER    

     CHECK POINT  END OF SOLVER       

       ELAPSED USER TIME (SEC)      =   0.0000    
       ELAPSED SYSTEM TIME (SEC)    =   0.0000    
       ELAPSED TOTAL CPU TIME (SEC) =   0.0000    
       ELAPSED WALLCLOCK TIME (SEC) =          0

               CONVERGENCE CHECKS FOR EQUILIBRIUM ITERATION     2


 AVERAGE FORCE                      2.840E+07   TIME AVG. FORCE       1.580E+07
 LARGEST RESIDUAL FORCE             2.886E+03   AT NODE       1087   DOF  1
   INSTANCE: CABLEPART                                                                       
 LARGEST INCREMENT OF DISP.         -1.29       AT NODE       1054   DOF  3
   INSTANCE: CABLEPART                                                                       
 LARGEST CORRECTION TO DISP.        1.738E-02   AT NODE       1097   DOF  3
   INSTANCE: CABLEPART                                                                       
 ESTIMATE OF DISP.    CORRECTION   -6.796E-04
 FORCE     EQUILIB. ACCEPTED BASED ON SMALL RESIDUAL AND ESTIMATED CORRECTION

 AVERAGE MOMENT                      27.8       TIME AVG. MOMENT       36.3    
 LARGEST RESIDUAL MOMENT            3.735E-03   AT NODE       1021   DOF  4
   INSTANCE: CABLEPART                                                                       
 LARGEST INCREMENT OF ROTATION      3.825E-03   AT NODE       1020   DOF  5
   INSTANCE: CABLEPART                                                                       
 LARGEST CORRECTION TO ROTATION     4.120E-04   AT NODE       1020   DOF  5
   INSTANCE: CABLEPART                                                                       
 ESTIMATE OF ROTATION CORRECTION    2.854E-05
 MOMENT    EQUILIB. ACCEPTED BASED ON SMALL RESIDUAL AND ESTIMATED CORRECTION
          TIME INCREMENT MAY NOW INCREASE TO    0.292    

 ITERATION SUMMARY FOR THE INCREMENT:   2 TOTAL ITERATIONS, OF WHICH
   0 ARE SEVERE DISCONTINUITY ITERATIONS AND  2 ARE EQUILIBRIUM ITERATIONS.

 TIME INCREMENT COMPLETED  0.195    ,  FRACTION OF STEP COMPLETED  0.583    
 STEP TIME COMPLETED       0.583    ,  TOTAL TIME COMPLETED         1.58    


  INCREMENT    16 STARTS. ATTEMPT NUMBER  1, TIME INCREMENT  0.292    

  NUMBER OF EQUATIONS =      1284     NUMBER OF FLOATING PT. OPERATIONS =  2.88E+05

  USING THE DIRECT SOLVER WITH   4 PROCESSORS

     CHECK POINT   START OF SOLVER    

     CHECK POINT  END OF SOLVER       

       ELAPSED USER TIME (SEC)      =   0.0000    
       ELAPSED SYSTEM TIME (SEC)    =   0.0000    
       ELAPSED TOTAL CPU TIME (SEC) =   0.0000    
       ELAPSED WALLCLOCK TIME (SEC) =          0

               CONVERGENCE CHECKS FOR EQUILIBRIUM ITERATION     1


 AVERAGE FORCE                      3.599E+07   TIME AVG. FORCE       1.706E+07
 LARGEST RESIDUAL FORCE             1.095E+05   AT NODE       1087   DOF  1
   INSTANCE: CABLEPART                                                                       
 LARGEST INCREMENT OF DISP.         -1.83       AT NODE       1054   DOF  3
   INSTANCE: CABLEPART                                                                       
 LARGEST CORRECTION TO DISP.       -0.119       AT NODE       1011   DOF  3
   INSTANCE: CABLEPART                                                                       
          FORCE     EQUILIBRIUM NOT ACHIEVED WITHIN TOLERANCE.

 AVERAGE MOMENT                      28.0       TIME AVG. MOMENT       35.7    
 LARGEST RESIDUAL MOMENT           -7.019E-02   AT NODE       1020   DOF  5
   INSTANCE: CABLEPART                                                                       
 LARGEST INCREMENT OF ROTATION      5.303E-03   AT NODE       1022   DOF  5
   INSTANCE: CABLEPART                                                                       
 LARGEST CORRECTION TO ROTATION    -2.830E-03   AT NODE       1020   DOF  5
   INSTANCE: CABLEPART                                                                       
          ROTATION CORRECTION TOO LARGE COMPARED TO ROTATION INCREMENT

  NUMBER OF EQUATIONS =      1284     NUMBER OF FLOATING PT. OPERATIONS =  2.88E+05

  USING THE DIRECT SOLVER WITH   4 PROCESSORS

     CHECK POINT   START OF SOLVER    

     CHECK POINT  END OF SOLVER       

       ELAPSED USER TIME (SEC)      =   0.0000    
       ELAPSED SYSTEM TIME (SEC)    =   0.0000    
       ELAPSED TOTAL CPU TIME (SEC) =   0.0000    
       ELAPSED WALLCLOCK TIME (SEC) =          0

               CONVERGENCE CHECKS FOR EQUILIBRIUM ITERATION     2


 AVERAGE FORCE                      3.598E+07   TIME AVG. FORCE       1.706E+07
 LARGEST RESIDUAL FORCE             5.998E+03   AT NODE       1087   DOF  1
   INSTANCE: CABLEPART                                                                       
 LARGEST INCREMENT OF DISP.         -1.84       AT NODE       1054   DOF  3
   INSTANCE: CABLEPART                                                                       
 LARGEST CORRECTION TO DISP.        2.496E-02   AT NODE       1011   DOF  3
   INSTANCE: CABLEPART                                                                       
 ESTIMATE OF DISP.    CORRECTION    1.367E-03
 FORCE     EQUILIB. ACCEPTED BASED ON SMALL RESIDUAL AND ESTIMATED CORRECTION

 AVERAGE MOMENT                      27.7       TIME AVG. MOMENT       35.7    
 LARGEST RESIDUAL MOMENT            5.682E-03   AT NODE       1087   DOF  5
   INSTANCE: CABLEPART                                                                       
 LARGEST INCREMENT OF ROTATION     -5.145E-03   AT NODE       1086   DOF  5
   INSTANCE: CABLEPART                                                                       
 LARGEST CORRECTION TO ROTATION     5.932E-04   AT NODE       1020   DOF  5
   INSTANCE: CABLEPART                                                                       
 ESTIMATE OF ROTATION CORRECTION   -4.802E-05
 MOMENT    EQUILIB. ACCEPTED BASED ON SMALL RESIDUAL AND ESTIMATED CORRECTION

 ITERATION SUMMARY FOR THE INCREMENT:   2 TOTAL ITERATIONS, OF WHICH
   0 ARE SEVERE DISCONTINUITY ITERATIONS AND  2 ARE EQUILIBRIUM ITERATIONS.

 TIME INCREMENT COMPLETED  0.292    ,  FRACTION OF STEP COMPLETED  0.875    
 STEP TIME COMPLETED       0.875    ,  TOTAL TIME COMPLETED         1.87    


  INCREMENT    17 STARTS. ATTEMPT NUMBER  1, TIME INCREMENT  0.125    

  NUMBER OF EQUATIONS =      1284     NUMBER OF FLOATING PT. OPERATIONS =  2.88E+05

  USING THE DIRECT SOLVER WITH   4 PROCESSORS

     CHECK POINT   START OF SOLVER    

     CHECK POINT  END OF SOLVER       

       ELAPSED USER TIME (SEC)      =  0.10000    
       ELAPSED SYSTEM TIME (SEC)    =   0.0000    
       ELAPSED TOTAL CPU TIME (SEC) =  0.10000    
       ELAPSED WALLCLOCK TIME (SEC) =          0

               CONVERGENCE CHECKS FOR EQUILIBRIUM ITERATION     1


 AVERAGE FORCE                      3.918E+07   TIME AVG. FORCE       1.836E+07
 LARGEST RESIDUAL FORCE            -2.238E+03   AT NODE       1021   DOF  1
   INSTANCE: CABLEPART                                                                       
 LARGEST INCREMENT OF DISP.        -0.761       AT NODE       1054   DOF  3
   INSTANCE: CABLEPART                                                                       
 LARGEST CORRECTION TO DISP.        2.821E-02   AT NODE       1054   DOF  3
   INSTANCE: CABLEPART                                                                       
 ESTIMATE OF DISP.    CORRECTION   -7.218E-04
 FORCE     EQUILIB. ACCEPTED BASED ON SMALL RESIDUAL AND ESTIMATED CORRECTION

 AVERAGE MOMENT                      28.0       TIME AVG. MOMENT       35.3    
 LARGEST RESIDUAL MOMENT            8.746E-03   AT NODE       1088   DOF  5
   INSTANCE: CABLEPART                                                                       
 LARGEST INCREMENT OF ROTATION      2.261E-03   AT NODE       1022   DOF  5
   INSTANCE: CABLEPART                                                                       
 LARGEST CORRECTION TO ROTATION    -5.136E-04   AT NODE       1020   DOF  5
   INSTANCE: CABLEPART                                                                       
 ESTIMATE OF ROTATION CORRECTION   -9.676E-06
 MOMENT    EQUILIB. ACCEPTED BASED ON SMALL RESIDUAL AND ESTIMATED CORRECTION

 ITERATION SUMMARY FOR THE INCREMENT:   1 TOTAL ITERATIONS, OF WHICH
   0 ARE SEVERE DISCONTINUITY ITERATIONS AND  1 ARE EQUILIBRIUM ITERATIONS.

 TIME INCREMENT COMPLETED  0.125    ,  FRACTION OF STEP COMPLETED   1.00    
 STEP TIME COMPLETED        1.00    ,  TOTAL TIME COMPLETED         2.00    


          THE ANALYSIS HAS BEEN COMPLETED



     ANALYSIS SUMMARY:
     TOTAL OF         55  INCREMENTS
                       1  CUTBACKS IN AUTOMATIC INCREMENTATION
                     155  ITERATIONS INCLUDING CONTACT ITERATIONS IF PRESENT
                     155  PASSES THROUGH THE EQUATION SOLVER OF WHICH 
                     155  INVOLVE MATRIX DECOMPOSITION, INCLUDING
                       0  DECOMPOSITION(S) OF THE MASS MATRIX
                       1  REORDERING OF EQUATIONS TO MINIMIZE WAVEFRONT
                       0  ADDITIONAL RESIDUAL EVALUATIONS FOR LINE SEARCHES
                       0  ADDITIONAL OPERATOR EVALUATIONS FOR LINE SEARCHES
                       0  WARNING MESSAGES DURING USER INPUT PROCESSING
                       5  WARNING MESSAGES DURING ANALYSIS
                       2  ANALYSIS WARNINGS ARE NUMERICAL PROBLEM MESSAGES
                       1  ANALYSIS WARNINGS ARE NEGATIVE EIGENVALUE MESSAGES
                       0  ERROR MESSAGES



     JOB TIME SUMMARY
       USER TIME (SEC)      =   12.300    
       SYSTEM TIME (SEC)    =   3.2000    
       TOTAL CPU TIME (SEC) =   15.500    
       WALLCLOCK TIME (SEC) =         11
