1

   Abaqus 3DEXPERIENCE R2017x                                  Date 10-Apr-2023   Time 13:23:10
   For use by NTNU NORGES TEKNISK NATURVITENSKAPELIGE UNIVERSITET under license from Dassault Systemes or its subsidiary.



                         The Abaqus Software is a product of:

                           Dassault Systemes SIMULIA Corp.
                           1301 Atwood Avenue, Suite 101W
                              Johnston, RI 02919, USA
 


                   The Abaqus Software is available only under license
                   from Dassault Systemes or its subsidiary and may be
                   used or reproduced only in accordance with the terms
                   of such license.
 
                          On machine NTNU08422 
                          you are authorized to run
                          Abaqus/Standard until 30-Sep-2023

                          Your site id is: 100000000001981 


 
                    For assistance or any other information you may
                    obtain contact information for your local office
                    from the world wide web at:

                      http://www.3ds.com/products/simulia/locations/

 
                * * * * * * * * * * * * * * * * * * * * * * * * * * * * * * 
                *                                                         * 
                *                   *****************                     * 
                *                   *  N O T I C E  *                     * 
                *                   *****************                     * 
                *                                                         * 
                *                                                         * 
                *               Abaqus 3DEXPERIENCE R2017x                * 
                *                                                         * 
                *          BUILD ID: 2016_09_27-23.54.59 126836           * 
                *                                                         * 
                *                                                         * 
                *  Please make sure you are using                         * 
                *  release 3DEXPERIENCE R2017x manuals                    * 
                *  plus the notes accompanying this release.              * 
                *                                                         * 
                *                                                         * 
                *                                                         * 
                *                                                         * 
                *                                                         * 
                *   This program may not be used for commercial purposes  * 
                *           without payment of a commercial fee.          * 
                *                                                         * 
                * * * * * * * * * * * * * * * * * * * * * * * * * * * * * * 


 



     PROCESSING PART, INSTANCE, AND ASSEMBLY INFORMATION
   *******************************************************


     END PROCESSING PART, INSTANCE, AND ASSEMBLY INFORMATION
   ***********************************************************




     OPTIONS BEING PROCESSED
   ***************************


  *Node
  *Element, type=B31
  *Element, type=SPRING2
  *Element, type=B31
  *Element, type=SPRING2
  *Element, type=B31
  *Element, type=S4R
  *Element, type=B31
  *Nset, nset=ASSEMBLYSUSPENSIONBRIDGE_SUSPENSIONBRIDGE_BEARINGLOW1_NORTH
  *Nset, nset=ASSEMBLYSUSPENSIONBRIDGE_SUSPENSIONBRIDGE_BEARINGLOW1_SOUTH
  *Nset, nset=ASSEMBLYSUSPENSIONBRIDGE_SUSPENSIONBRIDGE_BEARINGLOW2_NORTH
  *Nset, nset=ASSEMBLYSUSPENSIONBRIDGE_SUSPENSIONBRIDGE_BEARINGLOW2_SOUTH
  *Nset, nset=ASSEMBLYSUSPENSIONBRIDGE_SUSPENSIONBRIDGE_BEARINGTOP1_NORTH
  *Nset, nset=ASSEMBLYSUSPENSIONBRIDGE_SUSPENSIONBRIDGE_BEARINGTOP1_SOUTH
  *Nset, nset=ASSEMBLYSUSPENSIONBRIDGE_SUSPENSIONBRIDGE_BEARINGTOP2_NORTH
  *Nset, nset=ASSEMBLYSUSPENSIONBRIDGE_SUSPENSIONBRIDGE_BEARINGTOP2_SOUTH
  *Nset, nset=ASSEMBLYSUSPENSIONBRIDGE_SUSPENSIONBRIDGE_BRIDGEDECK1_COG
  *Nset, nset=ASSEMBLYSUSPENSIONBRIDGE_SUSPENSIONBRIDGE_BRIDGEDECK2_COG
  *Nset, nset=ASSEMBLYSUSPENSIONBRIDGE_SUSPENSIONBRIDGE_BRIDGEDECK_GAPMID
  *Nset, nset=ASSEMBLYSUSPENSIONBRIDGE_SUSPENSIONBRIDGE_BRIDGEDECK_INNER_EAST
  *Nset, nset=ASSEMBLYSUSPENSIONBRIDGE_SUSPENSIONBRIDGE_BRIDGEDECK_INNER_WEST
  *Nset, nset=ASSEMBLYSUSPENSIONBRIDGE_SUSPENSIONBRIDGE_BRIDGEOUTER_EAST
  *Nset, nset=ASSEMBLYSUSPENSIONBRIDGE_SUSPENSIONBRIDGE_BRIDGEOUTER_WEST
  *Nset, nset=ASSEMBLYSUSPENSIONBRIDGE_SUSPENSIONBRIDGE_CABLE_CLAMP_TEMPERATURE
  *Nset, nset=ASSEMBLYSUSPENSIONBRIDGE_SUSPENSIONBRIDGE_CABLE_MAIN_ANCHORAGE
  *Nset, nset=ASSEMBLYSUSPENSIONBRIDGE_SUSPENSIONBRIDGE_CABLE_MAIN_EAST
  *Nset, nset=ASSEMBLYSUSPENSIONBRIDGE_SUSPENSIONBRIDGE_CABLE_MAIN_SPAN
  *Nset, nset=ASSEMBLYSUSPENSIONBRIDGE_SUSPENSIONBRIDGE_CABLE_MAIN_TOP
  *Nset, nset=ASSEMBLYSUSPENSIONBRIDGE_SUSPENSIONBRIDGE_CABLE_MAIN_TOP_NORTH_EAST
  *Nset, nset=ASSEMBLYSUSPENSIONBRIDGE_SUSPENSIONBRIDGE_CABLE_MAIN_TOP_NORTH_WEST
  *Nset, nset=ASSEMBLYSUSPENSIONBRIDGE_SUSPENSIONBRIDGE_CABLE_MAIN_TOP_SOUTH_EAST
  *Nset, nset=ASSEMBLYSUSPENSIONBRIDGE_SUSPENSIONBRIDGE_CABLE_MAIN_TOP_SOUTH_WEST
  *Nset, nset=ASSEMBLYSUSPENSIONBRIDGE_SUSPENSIONBRIDGE_CABLE_MAIN_WEST
  *Nset, nset=ASSEMBLYSUSPENSIONBRIDGE_SUSPENSIONBRIDGE_TOWER_BASE
  *Nset, nset=ASSEMBLYSUSPENSIONBRIDGE_SUSPENSIONBRIDGE_TOWER_CROSSBEAM_NORTH_1
  *Nset, nset=ASSEMBLYSUSPENSIONBRIDGE_SUSPENSIONBRIDGE_TOWER_CROSSBEAM_NORTH_1_END
  *Nset, nset=ASSEMBLYSUSPENSIONBRIDGE_SUSPENSIONBRIDGE_TOWER_CROSSBEAM_NORTH_1_START
  *Nset, nset=ASSEMBLYSUSPENSIONBRIDGE_SUSPENSIONBRIDGE_TOWER_CROSSBEAM_NORTH_2
  *Nset, nset=ASSEMBLYSUSPENSIONBRIDGE_SUSPENSIONBRIDGE_TOWER_CROSSBEAM_NORTH_2_END
  *Nset, nset=ASSEMBLYSUSPENSIONBRIDGE_SUSPENSIONBRIDGE_TOWER_CROSSBEAM_NORTH_2_START
  *Nset, nset=ASSEMBLYSUSPENSIONBRIDGE_SUSPENSIONBRIDGE_TOWER_CROSSBEAM_NORTH_3
  *Nset, nset=ASSEMBLYSUSPENSIONBRIDGE_SUSPENSIONBRIDGE_TOWER_CROSSBEAM_NORTH_3_END
  *Nset, nset=ASSEMBLYSUSPENSIONBRIDGE_SUSPENSIONBRIDGE_TOWER_CROSSBEAM_NORTH_3_START
  *Nset, nset=ASSEMBLYSUSPENSIONBRIDGE_SUSPENSIONBRIDGE_TOWER_CROSSBEAM_NORTH_4
  *Nset, nset=ASSEMBLYSUSPENSIONBRIDGE_SUSPENSIONBRIDGE_TOWER_CROSSBEAM_NORTH_4_END
  *Nset, nset=ASSEMBLYSUSPENSIONBRIDGE_SUSPENSIONBRIDGE_TOWER_CROSSBEAM_NORTH_4_START
  *Nset, nset=ASSEMBLYSUSPENSIONBRIDGE_SUSPENSIONBRIDGE_TOWER_CROSSBEAM_NORTH_5
  *Nset, nset=ASSEMBLYSUSPENSIONBRIDGE_SUSPENSIONBRIDGE_TOWER_CROSSBEAM_NORTH_5_END
  *Nset, nset=ASSEMBLYSUSPENSIONBRIDGE_SUSPENSIONBRIDGE_TOWER_CROSSBEAM_NORTH_5_START
  *Nset, nset=ASSEMBLYSUSPENSIONBRIDGE_SUSPENSIONBRIDGE_TOWER_CROSSBEAM_SOUTH_1
  *Nset, nset=ASSEMBLYSUSPENSIONBRIDGE_SUSPENSIONBRIDGE_TOWER_CROSSBEAM_SOUTH_1_END
  *Nset, nset=ASSEMBLYSUSPENSIONBRIDGE_SUSPENSIONBRIDGE_TOWER_CROSSBEAM_SOUTH_1_START
  *Nset, nset=ASSEMBLYSUSPENSIONBRIDGE_SUSPENSIONBRIDGE_TOWER_CROSSBEAM_SOUTH_2
  *Nset, nset=ASSEMBLYSUSPENSIONBRIDGE_SUSPENSIONBRIDGE_TOWER_CROSSBEAM_SOUTH_2_END
  *Nset, nset=ASSEMBLYSUSPENSIONBRIDGE_SUSPENSIONBRIDGE_TOWER_CROSSBEAM_SOUTH_2_START
  *Nset, nset=ASSEMBLYSUSPENSIONBRIDGE_SUSPENSIONBRIDGE_TOWER_CROSSBEAM_SOUTH_3
  *Nset, nset=ASSEMBLYSUSPENSIONBRIDGE_SUSPENSIONBRIDGE_TOWER_CROSSBEAM_SOUTH_3_END
  *Nset, nset=ASSEMBLYSUSPENSIONBRIDGE_SUSPENSIONBRIDGE_TOWER_CROSSBEAM_SOUTH_3_START
  *Nset, nset=ASSEMBLYSUSPENSIONBRIDGE_SUSPENSIONBRIDGE_TOWER_CROSSBEAM_SOUTH_4
  *Nset, nset=ASSEMBLYSUSPENSIONBRIDGE_SUSPENSIONBRIDGE_TOWER_CROSSBEAM_SOUTH_4_END
  *Nset, nset=ASSEMBLYSUSPENSIONBRIDGE_SUSPENSIONBRIDGE_TOWER_CROSSBEAM_SOUTH_4_START
  *Nset, nset=ASSEMBLYSUSPENSIONBRIDGE_SUSPENSIONBRIDGE_TOWER_CROSSBEAM_SOUTH_5
  *Nset, nset=ASSEMBLYSUSPENSIONBRIDGE_SUSPENSIONBRIDGE_TOWER_CROSSBEAM_SOUTH_5_END
  *Nset, nset=ASSEMBLYSUSPENSIONBRIDGE_SUSPENSIONBRIDGE_TOWER_CROSSBEAM_SOUTH_5_START
  *Nset, nset=ASSEMBLYSUSPENSIONBRIDGE_SUSPENSIONBRIDGE_TOWER_LEG
  *Nset, nset=ASSEMBLYSUSPENSIONBRIDGE_SUSPENSIONBRIDGE_TOWER_LEG_NORTH_CROSSBEAM_1_END
  *Nset, nset=ASSEMBLYSUSPENSIONBRIDGE_SUSPENSIONBRIDGE_TOWER_LEG_NORTH_CROSSBEAM_1_START
  *Nset, nset=ASSEMBLYSUSPENSIONBRIDGE_SUSPENSIONBRIDGE_TOWER_LEG_NORTH_CROSSBEAM_2_END
  *Nset, nset=ASSEMBLYSUSPENSIONBRIDGE_SUSPENSIONBRIDGE_TOWER_LEG_NORTH_CROSSBEAM_2_START
  *Nset, nset=ASSEMBLYSUSPENSIONBRIDGE_SUSPENSIONBRIDGE_TOWER_LEG_NORTH_CROSSBEAM_3_END
  *Nset, nset=ASSEMBLYSUSPENSIONBRIDGE_SUSPENSIONBRIDGE_TOWER_LEG_NORTH_CROSSBEAM_3_START
  *Nset, nset=ASSEMBLYSUSPENSIONBRIDGE_SUSPENSIONBRIDGE_TOWER_LEG_NORTH_CROSSBEAM_4_END
  *Nset, nset=ASSEMBLYSUSPENSIONBRIDGE_SUSPENSIONBRIDGE_TOWER_LEG_NORTH_CROSSBEAM_4_START
  *Nset, nset=ASSEMBLYSUSPENSIONBRIDGE_SUSPENSIONBRIDGE_TOWER_LEG_NORTH_CROSSBEAM_5_END
  *Nset, nset=ASSEMBLYSUSPENSIONBRIDGE_SUSPENSIONBRIDGE_TOWER_LEG_NORTH_CROSSBEAM_5_START
  *Nset, nset=ASSEMBLYSUSPENSIONBRIDGE_SUSPENSIONBRIDGE_TOWER_LEG_NORTH_EAST
  *Nset, nset=ASSEMBLYSUSPENSIONBRIDGE_SUSPENSIONBRIDGE_TOWER_LEG_NORTH_WEST
  *Nset, nset=ASSEMBLYSUSPENSIONBRIDGE_SUSPENSIONBRIDGE_TOWER_LEG_SOUTH_CROSSBEAM_1_END
  *Nset, nset=ASSEMBLYSUSPENSIONBRIDGE_SUSPENSIONBRIDGE_TOWER_LEG_SOUTH_CROSSBEAM_1_START
  *Nset, nset=ASSEMBLYSUSPENSIONBRIDGE_SUSPENSIONBRIDGE_TOWER_LEG_SOUTH_CROSSBEAM_2_END
  *Nset, nset=ASSEMBLYSUSPENSIONBRIDGE_SUSPENSIONBRIDGE_TOWER_LEG_SOUTH_CROSSBEAM_2_START
  *Nset, nset=ASSEMBLYSUSPENSIONBRIDGE_SUSPENSIONBRIDGE_TOWER_LEG_SOUTH_CROSSBEAM_3_END
  *Nset, nset=ASSEMBLYSUSPENSIONBRIDGE_SUSPENSIONBRIDGE_TOWER_LEG_SOUTH_CROSSBEAM_3_START
  *Nset, nset=ASSEMBLYSUSPENSIONBRIDGE_SUSPENSIONBRIDGE_TOWER_LEG_SOUTH_CROSSBEAM_4_END
  *Nset, nset=ASSEMBLYSUSPENSIONBRIDGE_SUSPENSIONBRIDGE_TOWER_LEG_SOUTH_CROSSBEAM_4_START
  *Nset, nset=ASSEMBLYSUSPENSIONBRIDGE_SUSPENSIONBRIDGE_TOWER_LEG_SOUTH_CROSSBEAM_5_END
  *Nset, nset=ASSEMBLYSUSPENSIONBRIDGE_SUSPENSIONBRIDGE_TOWER_LEG_SOUTH_CROSSBEAM_5_START
  *Nset, nset=ASSEMBLYSUSPENSIONBRIDGE_SUSPENSIONBRIDGE_TOWER_LEG_SOUTH_EAST
  *Nset, nset=ASSEMBLYSUSPENSIONBRIDGE_SUSPENSIONBRIDGE_TOWER_LEG_SOUTH_WEST
  *Nset, nset=ASSEMBLYSUSPENSIONBRIDGE_SUSPENSIONBRIDGE_TOWER_TOP_NORTH_EAST
  *Nset, nset=ASSEMBLYSUSPENSIONBRIDGE_SUSPENSIONBRIDGE_TOWER_TOP_NORTH_WEST
  *Nset, nset=ASSEMBLYSUSPENSIONBRIDGE_SUSPENSIONBRIDGE_TOWER_TOP_SOUTH_EAST
  *Nset, nset=ASSEMBLYSUSPENSIONBRIDGE_SUSPENSIONBRIDGE_TOWER_TOP_SOUTH_WEST
  *Elset, elset=ASSEMBLYSUSPENSIONBRIDGE_SUSPENSIONBRIDGE_BEARING
  *Elset, elset=ASSEMBLYSUSPENSIONBRIDGE_SUSPENSIONBRIDGE_BEARINGLOW
  *Elset, elset=ASSEMBLYSUSPENSIONBRIDGE_SUSPENSIONBRIDGE_BEARINGLOW1_NORTH
  *Elset, elset=ASSEMBLYSUSPENSIONBRIDGE_SUSPENSIONBRIDGE_BEARINGLOW1_SOUTH
  *Elset, elset=ASSEMBLYSUSPENSIONBRIDGE_SUSPENSIONBRIDGE_BEARINGLOW2_NORTH
  *Elset, elset=ASSEMBLYSUSPENSIONBRIDGE_SUSPENSIONBRIDGE_BEARINGLOW2_SOUTH
  *Elset, elset=ASSEMBLYSUSPENSIONBRIDGE_SUSPENSIONBRIDGE_BEARINGPENDULUM
  *Elset, elset=ASSEMBLYSUSPENSIONBRIDGE_SUSPENSIONBRIDGE_BEARINGPENDULUM1_NORTH
  *Elset, elset=ASSEMBLYSUSPENSIONBRIDGE_SUSPENSIONBRIDGE_BEARINGPENDULUM1_SOUTH
  *Elset, elset=ASSEMBLYSUSPENSIONBRIDGE_SUSPENSIONBRIDGE_BEARINGPENDULUM2_NORTH
  *Elset, elset=ASSEMBLYSUSPENSIONBRIDGE_SUSPENSIONBRIDGE_BEARINGPENDULUM2_SOUTH
  *Elset, elset=ASSEMBLYSUSPENSIONBRIDGE_SUSPENSIONBRIDGE_BEARINGSPRING
  *Elset, elset=ASSEMBLYSUSPENSIONBRIDGE_SUSPENSIONBRIDGE_BEARINGSPRING1_NORTH
  *Elset, elset=ASSEMBLYSUSPENSIONBRIDGE_SUSPENSIONBRIDGE_BEARINGSPRING1_NORTH_RX
  *Elset, elset=ASSEMBLYSUSPENSIONBRIDGE_SUSPENSIONBRIDGE_BEARINGSPRING1_NORTH_RY
  *Elset, elset=ASSEMBLYSUSPENSIONBRIDGE_SUSPENSIONBRIDGE_BEARINGSPRING1_NORTH_RZ
  *Elset, elset=ASSEMBLYSUSPENSIONBRIDGE_SUSPENSIONBRIDGE_BEARINGSPRING1_NORTH_X
  *Elset, elset=ASSEMBLYSUSPENSIONBRIDGE_SUSPENSIONBRIDGE_BEARINGSPRING1_NORTH_Y
  *Elset, elset=ASSEMBLYSUSPENSIONBRIDGE_SUSPENSIONBRIDGE_BEARINGSPRING1_NORTH_Z
  *Elset, elset=ASSEMBLYSUSPENSIONBRIDGE_SUSPENSIONBRIDGE_BEARINGSPRING1_SOUTH
  *Elset, elset=ASSEMBLYSUSPENSIONBRIDGE_SUSPENSIONBRIDGE_BEARINGSPRING1_SOUTH_RX
  *Elset, elset=ASSEMBLYSUSPENSIONBRIDGE_SUSPENSIONBRIDGE_BEARINGSPRING1_SOUTH_RY
  *Elset, elset=ASSEMBLYSUSPENSIONBRIDGE_SUSPENSIONBRIDGE_BEARINGSPRING1_SOUTH_RZ
  *Elset, elset=ASSEMBLYSUSPENSIONBRIDGE_SUSPENSIONBRIDGE_BEARINGSPRING1_SOUTH_X
  *Elset, elset=ASSEMBLYSUSPENSIONBRIDGE_SUSPENSIONBRIDGE_BEARINGSPRING1_SOUTH_Y
  *Elset, elset=ASSEMBLYSUSPENSIONBRIDGE_SUSPENSIONBRIDGE_BEARINGSPRING1_SOUTH_Z
  *Elset, elset=ASSEMBLYSUSPENSIONBRIDGE_SUSPENSIONBRIDGE_BEARINGSPRING2_NORTH
  *Elset, elset=ASSEMBLYSUSPENSIONBRIDGE_SUSPENSIONBRIDGE_BEARINGSPRING2_NORTH_RX
  *Elset, elset=ASSEMBLYSUSPENSIONBRIDGE_SUSPENSIONBRIDGE_BEARINGSPRING2_NORTH_RY
  *Elset, elset=ASSEMBLYSUSPENSIONBRIDGE_SUSPENSIONBRIDGE_BEARINGSPRING2_NORTH_RZ
  *Elset, elset=ASSEMBLYSUSPENSIONBRIDGE_SUSPENSIONBRIDGE_BEARINGSPRING2_NORTH_X
  *Elset, elset=ASSEMBLYSUSPENSIONBRIDGE_SUSPENSIONBRIDGE_BEARINGSPRING2_NORTH_Y
  *Elset, elset=ASSEMBLYSUSPENSIONBRIDGE_SUSPENSIONBRIDGE_BEARINGSPRING2_NORTH_Z
  *Elset, elset=ASSEMBLYSUSPENSIONBRIDGE_SUSPENSIONBRIDGE_BEARINGSPRING2_SOUTH
  *Elset, elset=ASSEMBLYSUSPENSIONBRIDGE_SUSPENSIONBRIDGE_BEARINGSPRING2_SOUTH_RX
  *Elset, elset=ASSEMBLYSUSPENSIONBRIDGE_SUSPENSIONBRIDGE_BEARINGSPRING2_SOUTH_RY
  *Elset, elset=ASSEMBLYSUSPENSIONBRIDGE_SUSPENSIONBRIDGE_BEARINGSPRING2_SOUTH_RZ
  *Elset, elset=ASSEMBLYSUSPENSIONBRIDGE_SUSPENSIONBRIDGE_BEARINGSPRING2_SOUTH_X
  *Elset, elset=ASSEMBLYSUSPENSIONBRIDGE_SUSPENSIONBRIDGE_BEARINGSPRING2_SOUTH_Y
  *Elset, elset=ASSEMBLYSUSPENSIONBRIDGE_SUSPENSIONBRIDGE_BEARINGSPRING2_SOUTH_Z
  *Elset, elset=ASSEMBLYSUSPENSIONBRIDGE_SUSPENSIONBRIDGE_BEARINGTOP
  *Elset, elset=ASSEMBLYSUSPENSIONBRIDGE_SUSPENSIONBRIDGE_BEARINGTOP1_NORTH
  *Elset, elset=ASSEMBLYSUSPENSIONBRIDGE_SUSPENSIONBRIDGE_BEARINGTOP1_SOUTH
  *Elset, elset=ASSEMBLYSUSPENSIONBRIDGE_SUSPENSIONBRIDGE_BEARINGTOP2_NORTH
  *Elset, elset=ASSEMBLYSUSPENSIONBRIDGE_SUSPENSIONBRIDGE_BEARINGTOP2_SOUTH
  *Elset, elset=ASSEMBLYSUSPENSIONBRIDGE_SUSPENSIONBRIDGE_BRIDGEDECK
  *Elset, elset=ASSEMBLYSUSPENSIONBRIDGE_SUSPENSIONBRIDGE_BRIDGEDECK1_COG
  *Elset, elset=ASSEMBLYSUSPENSIONBRIDGE_SUSPENSIONBRIDGE_BRIDGEDECK2_COG
  *Elset, elset=ASSEMBLYSUSPENSIONBRIDGE_SUSPENSIONBRIDGE_BRIDGEDECK_COG
  *Elset, elset=ASSEMBLYSUSPENSIONBRIDGE_SUSPENSIONBRIDGE_BRIDGEDECK_SHELL
  *Elset, elset=ASSEMBLYSUSPENSIONBRIDGE_SUSPENSIONBRIDGE_CABLE_CLAMP
  *Elset, elset=ASSEMBLYSUSPENSIONBRIDGE_SUSPENSIONBRIDGE_CABLE_CLAMP_EAST
  *Elset, elset=ASSEMBLYSUSPENSIONBRIDGE_SUSPENSIONBRIDGE_CABLE_CLAMP_WEST
  *Elset, elset=ASSEMBLYSUSPENSIONBRIDGE_SUSPENSIONBRIDGE_CABLE_MAIN
  *Elset, elset=ASSEMBLYSUSPENSIONBRIDGE_SUSPENSIONBRIDGE_CABLE_MAIN_EAST
  *Elset, elset=ASSEMBLYSUSPENSIONBRIDGE_SUSPENSIONBRIDGE_CABLE_MAIN_SPAN
  *Elset, elset=ASSEMBLYSUSPENSIONBRIDGE_SUSPENSIONBRIDGE_CABLE_MAIN_WEST
  *Elset, elset=ASSEMBLYSUSPENSIONBRIDGE_SUSPENSIONBRIDGE_CABLE_TEMPSUPPORT
  *Elset, elset=ASSEMBLYSUSPENSIONBRIDGE_SUSPENSIONBRIDGE_HANGER
  *Elset, elset=ASSEMBLYSUSPENSIONBRIDGE_SUSPENSIONBRIDGE_HANGER_EAST
  *Elset, elset=ASSEMBLYSUSPENSIONBRIDGE_SUSPENSIONBRIDGE_HANGER_WEST
  *Elset, elset=ASSEMBLYSUSPENSIONBRIDGE_SUSPENSIONBRIDGE_LATCONNGAP
  *Elset, elset=ASSEMBLYSUSPENSIONBRIDGE_SUSPENSIONBRIDGE_LATCONNGAPEAST
  *Elset, elset=ASSEMBLYSUSPENSIONBRIDGE_SUSPENSIONBRIDGE_LATCONNGAPWEST
  *Elset, elset=ASSEMBLYSUSPENSIONBRIDGE_SUSPENSIONBRIDGE_LATCONNINNER
  *Elset, elset=ASSEMBLYSUSPENSIONBRIDGE_SUSPENSIONBRIDGE_LATCONNINNEREAST
  *Elset, elset=ASSEMBLYSUSPENSIONBRIDGE_SUSPENSIONBRIDGE_LATCONNINNERWEST
  *Elset, elset=ASSEMBLYSUSPENSIONBRIDGE_SUSPENSIONBRIDGE_LATCONNOUTER
  *Elset, elset=ASSEMBLYSUSPENSIONBRIDGE_SUSPENSIONBRIDGE_LATCONNOUTEREAST
  *Elset, elset=ASSEMBLYSUSPENSIONBRIDGE_SUSPENSIONBRIDGE_LATCONNOUTERWEST
  *Elset, elset=ASSEMBLYSUSPENSIONBRIDGE_SUSPENSIONBRIDGE_SADLESPRING
  *Elset, elset=ASSEMBLYSUSPENSIONBRIDGE_SUSPENSIONBRIDGE_SADLESPRING_X
  *Elset, elset=ASSEMBLYSUSPENSIONBRIDGE_SUSPENSIONBRIDGE_SADLESPRING_Y
  *Elset, elset=ASSEMBLYSUSPENSIONBRIDGE_SUSPENSIONBRIDGE_SADLESPRING_Z
  *Elset, elset=ASSEMBLYSUSPENSIONBRIDGE_SUSPENSIONBRIDGE_TOWER
  *Elset, elset=ASSEMBLYSUSPENSIONBRIDGE_SUSPENSIONBRIDGE_TOWER_CROSSBEAM
  *Elset, elset=ASSEMBLYSUSPENSIONBRIDGE_SUSPENSIONBRIDGE_TOWER_CROSSBEAM_NORTH_1
  *Elset, elset=ASSEMBLYSUSPENSIONBRIDGE_SUSPENSIONBRIDGE_TOWER_CROSSBEAM_NORTH_2
  *Elset, elset=ASSEMBLYSUSPENSIONBRIDGE_SUSPENSIONBRIDGE_TOWER_CROSSBEAM_NORTH_3
  *Elset, elset=ASSEMBLYSUSPENSIONBRIDGE_SUSPENSIONBRIDGE_TOWER_CROSSBEAM_NORTH_4
  *Elset, elset=ASSEMBLYSUSPENSIONBRIDGE_SUSPENSIONBRIDGE_TOWER_CROSSBEAM_NORTH_5
  *Elset, elset=ASSEMBLYSUSPENSIONBRIDGE_SUSPENSIONBRIDGE_TOWER_CROSSBEAM_SOUTH_1
  *Elset, elset=ASSEMBLYSUSPENSIONBRIDGE_SUSPENSIONBRIDGE_TOWER_CROSSBEAM_SOUTH_2
  *Elset, elset=ASSEMBLYSUSPENSIONBRIDGE_SUSPENSIONBRIDGE_TOWER_CROSSBEAM_SOUTH_3
  *Elset, elset=ASSEMBLYSUSPENSIONBRIDGE_SUSPENSIONBRIDGE_TOWER_CROSSBEAM_SOUTH_4
  *Elset, elset=ASSEMBLYSUSPENSIONBRIDGE_SUSPENSIONBRIDGE_TOWER_CROSSBEAM_SOUTH_5
  *Elset, elset=ASSEMBLYSUSPENSIONBRIDGE_SUSPENSIONBRIDGE_TOWER_LEG
  *Elset, elset=ASSEMBLYSUSPENSIONBRIDGE_SUSPENSIONBRIDGE_TOWER_LEG_NORTH_EAST
  *Elset, elset=ASSEMBLYSUSPENSIONBRIDGE_SUSPENSIONBRIDGE_TOWER_LEG_NORTH_WEST
  *Elset, elset=ASSEMBLYSUSPENSIONBRIDGE_SUSPENSIONBRIDGE_TOWER_LEG_SOUTH_EAST
  *Elset, elset=ASSEMBLYSUSPENSIONBRIDGE_SUSPENSIONBRIDGE_TOWER_LEG_SOUTH_WEST
  *Elset, elset=ASSEMBLYSUSPENSIONBRIDGE_SUSPENSIONBRIDGE_TOWER_NORTH_CS_001
  *Elset, elset=ASSEMBLYSUSPENSIONBRIDGE_SUSPENSIONBRIDGE_TOWER_NORTH_CS_002
  *Elset, elset=ASSEMBLYSUSPENSIONBRIDGE_SUSPENSIONBRIDGE_TOWER_NORTH_CS_003
  *Elset, elset=ASSEMBLYSUSPENSIONBRIDGE_SUSPENSIONBRIDGE_TOWER_NORTH_CS_004
  *Elset, elset=ASSEMBLYSUSPENSIONBRIDGE_SUSPENSIONBRIDGE_TOWER_NORTH_CS_005
  *Elset, elset=ASSEMBLYSUSPENSIONBRIDGE_SUSPENSIONBRIDGE_TOWER_NORTH_CS_006
  *Elset, elset=ASSEMBLYSUSPENSIONBRIDGE_SUSPENSIONBRIDGE_TOWER_NORTH_CS_007
  *Elset, elset=ASSEMBLYSUSPENSIONBRIDGE_SUSPENSIONBRIDGE_TOWER_NORTH_CS_008
  *Elset, elset=ASSEMBLYSUSPENSIONBRIDGE_SUSPENSIONBRIDGE_TOWER_NORTH_CS_009
  *Elset, elset=ASSEMBLYSUSPENSIONBRIDGE_SUSPENSIONBRIDGE_TOWER_NORTH_CS_010
  *Elset, elset=ASSEMBLYSUSPENSIONBRIDGE_SUSPENSIONBRIDGE_TOWER_NORTH_CS_011
  *Elset, elset=ASSEMBLYSUSPENSIONBRIDGE_SUSPENSIONBRIDGE_TOWER_NORTH_CS_012
  *Elset, elset=ASSEMBLYSUSPENSIONBRIDGE_SUSPENSIONBRIDGE_TOWER_NORTH_CS_013
  *Elset, elset=ASSEMBLYSUSPENSIONBRIDGE_SUSPENSIONBRIDGE_TOWER_NORTH_CS_014
  *Elset, elset=ASSEMBLYSUSPENSIONBRIDGE_SUSPENSIONBRIDGE_TOWER_NORTH_CS_015
  *Elset, elset=ASSEMBLYSUSPENSIONBRIDGE_SUSPENSIONBRIDGE_TOWER_NORTH_CS_016
  *Elset, elset=ASSEMBLYSUSPENSIONBRIDGE_SUSPENSIONBRIDGE_TOWER_NORTH_CS_017
  *Elset, elset=ASSEMBLYSUSPENSIONBRIDGE_SUSPENSIONBRIDGE_TOWER_NORTH_CS_018
  *Elset, elset=ASSEMBLYSUSPENSIONBRIDGE_SUSPENSIONBRIDGE_TOWER_NORTH_CS_019
  *Elset, elset=ASSEMBLYSUSPENSIONBRIDGE_SUSPENSIONBRIDGE_TOWER_NORTH_CS_020
  *Elset, elset=ASSEMBLYSUSPENSIONBRIDGE_SUSPENSIONBRIDGE_TOWER_NORTH_CS_021
  *Elset, elset=ASSEMBLYSUSPENSIONBRIDGE_SUSPENSIONBRIDGE_TOWER_NORTH_CS_022
  *Elset, elset=ASSEMBLYSUSPENSIONBRIDGE_SUSPENSIONBRIDGE_TOWER_NORTH_CS_023
  *Elset, elset=ASSEMBLYSUSPENSIONBRIDGE_SUSPENSIONBRIDGE_TOWER_NORTH_CS_024
  *Elset, elset=ASSEMBLYSUSPENSIONBRIDGE_SUSPENSIONBRIDGE_TOWER_NORTH_CS_025
  *Elset, elset=ASSEMBLYSUSPENSIONBRIDGE_SUSPENSIONBRIDGE_TOWER_NORTH_CS_026
  *Elset, elset=ASSEMBLYSUSPENSIONBRIDGE_SUSPENSIONBRIDGE_TOWER_NORTH_CS_027
  *Elset, elset=ASSEMBLYSUSPENSIONBRIDGE_SUSPENSIONBRIDGE_TOWER_NORTH_CS_028
  *Elset, elset=ASSEMBLYSUSPENSIONBRIDGE_SUSPENSIONBRIDGE_TOWER_NORTH_CS_029
  *Elset, elset=ASSEMBLYSUSPENSIONBRIDGE_SUSPENSIONBRIDGE_TOWER_NORTH_CS_030
  *Elset, elset=ASSEMBLYSUSPENSIONBRIDGE_SUSPENSIONBRIDGE_TOWER_NORTH_CS_031
  *Elset, elset=ASSEMBLYSUSPENSIONBRIDGE_SUSPENSIONBRIDGE_TOWER_NORTH_CS_032
  *Elset, elset=ASSEMBLYSUSPENSIONBRIDGE_SUSPENSIONBRIDGE_TOWER_NORTH_CS_033
  *Elset, elset=ASSEMBLYSUSPENSIONBRIDGE_SUSPENSIONBRIDGE_TOWER_NORTH_CS_034
  *Elset, elset=ASSEMBLYSUSPENSIONBRIDGE_SUSPENSIONBRIDGE_TOWER_NORTH_CS_035
  *Elset, elset=ASSEMBLYSUSPENSIONBRIDGE_SUSPENSIONBRIDGE_TOWER_NORTH_CS_036
  *Elset, elset=ASSEMBLYSUSPENSIONBRIDGE_SUSPENSIONBRIDGE_TOWER_NORTH_CS_037
  *Elset, elset=ASSEMBLYSUSPENSIONBRIDGE_SUSPENSIONBRIDGE_TOWER_NORTH_CS_038
  *Elset, elset=ASSEMBLYSUSPENSIONBRIDGE_SUSPENSIONBRIDGE_TOWER_NORTH_CS_039
  *Elset, elset=ASSEMBLYSUSPENSIONBRIDGE_SUSPENSIONBRIDGE_TOWER_NORTH_CS_040
  *Elset, elset=ASSEMBLYSUSPENSIONBRIDGE_SUSPENSIONBRIDGE_TOWER_NORTH_CS_041
  *Elset, elset=ASSEMBLYSUSPENSIONBRIDGE_SUSPENSIONBRIDGE_TOWER_NORTH_CS_042
  *Elset, elset=ASSEMBLYSUSPENSIONBRIDGE_SUSPENSIONBRIDGE_TOWER_NORTH_CS_043
  *Elset, elset=ASSEMBLYSUSPENSIONBRIDGE_SUSPENSIONBRIDGE_TOWER_NORTH_CS_044
  *Elset, elset=ASSEMBLYSUSPENSIONBRIDGE_SUSPENSIONBRIDGE_TOWER_NORTH_CS_045
  *Elset, elset=ASSEMBLYSUSPENSIONBRIDGE_SUSPENSIONBRIDGE_TOWER_NORTH_CS_046
  *Elset, elset=ASSEMBLYSUSPENSIONBRIDGE_SUSPENSIONBRIDGE_TOWER_NORTH_CS_047
  *Elset, elset=ASSEMBLYSUSPENSIONBRIDGE_SUSPENSIONBRIDGE_TOWER_NORTH_CS_048
  *Elset, elset=ASSEMBLYSUSPENSIONBRIDGE_SUSPENSIONBRIDGE_TOWER_NORTH_CS_049
  *Elset, elset=ASSEMBLYSUSPENSIONBRIDGE_SUSPENSIONBRIDGE_TOWER_NORTH_CS_050
  *Elset, elset=ASSEMBLYSUSPENSIONBRIDGE_SUSPENSIONBRIDGE_TOWER_NORTH_CS_051
  *Elset, elset=ASSEMBLYSUSPENSIONBRIDGE_SUSPENSIONBRIDGE_TOWER_NORTH_CS_052
  *Elset, elset=ASSEMBLYSUSPENSIONBRIDGE_SUSPENSIONBRIDGE_TOWER_NORTH_CS_053
  *Elset, elset=ASSEMBLYSUSPENSIONBRIDGE_SUSPENSIONBRIDGE_TOWER_NORTH_CS_054
  *Elset, elset=ASSEMBLYSUSPENSIONBRIDGE_SUSPENSIONBRIDGE_TOWER_NORTH_CS_055
  *Elset, elset=ASSEMBLYSUSPENSIONBRIDGE_SUSPENSIONBRIDGE_TOWER_NORTH_CS_056
  *Elset, elset=ASSEMBLYSUSPENSIONBRIDGE_SUSPENSIONBRIDGE_TOWER_NORTH_CS_057
  *Elset, elset=ASSEMBLYSUSPENSIONBRIDGE_SUSPENSIONBRIDGE_TOWER_NORTH_CS_058
  *Elset, elset=ASSEMBLYSUSPENSIONBRIDGE_SUSPENSIONBRIDGE_TOWER_NORTH_CS_059
  *Elset, elset=ASSEMBLYSUSPENSIONBRIDGE_SUSPENSIONBRIDGE_TOWER_NORTH_CS_060
  *Elset, elset=ASSEMBLYSUSPENSIONBRIDGE_SUSPENSIONBRIDGE_TOWER_NORTH_CS_061
  *Elset, elset=ASSEMBLYSUSPENSIONBRIDGE_SUSPENSIONBRIDGE_TOWER_NORTH_CS_062
  *Elset, elset=ASSEMBLYSUSPENSIONBRIDGE_SUSPENSIONBRIDGE_TOWER_NORTH_CS_063
  *Elset, elset=ASSEMBLYSUSPENSIONBRIDGE_SUSPENSIONBRIDGE_TOWER_NORTH_CS_064
  *Elset, elset=ASSEMBLYSUSPENSIONBRIDGE_SUSPENSIONBRIDGE_TOWER_NORTH_CS_065
  *Elset, elset=ASSEMBLYSUSPENSIONBRIDGE_SUSPENSIONBRIDGE_TOWER_NORTH_CS_066
  *Elset, elset=ASSEMBLYSUSPENSIONBRIDGE_SUSPENSIONBRIDGE_TOWER_NORTH_CS_067
  *Elset, elset=ASSEMBLYSUSPENSIONBRIDGE_SUSPENSIONBRIDGE_TOWER_NORTH_CS_068
  *Elset, elset=ASSEMBLYSUSPENSIONBRIDGE_SUSPENSIONBRIDGE_TOWER_NORTH_CS_069
  *Elset, elset=ASSEMBLYSUSPENSIONBRIDGE_SUSPENSIONBRIDGE_TOWER_NORTH_CS_070
  *Elset, elset=ASSEMBLYSUSPENSIONBRIDGE_SUSPENSIONBRIDGE_TOWER_NORTH_CS_071
  *Elset, elset=ASSEMBLYSUSPENSIONBRIDGE_SUSPENSIONBRIDGE_TOWER_NORTH_CS_072
  *Elset, elset=ASSEMBLYSUSPENSIONBRIDGE_SUSPENSIONBRIDGE_TOWER_NORTH_CS_073
  *Elset, elset=ASSEMBLYSUSPENSIONBRIDGE_SUSPENSIONBRIDGE_TOWER_NORTH_CS_074
  *Elset, elset=ASSEMBLYSUSPENSIONBRIDGE_SUSPENSIONBRIDGE_TOWER_SOUTH_CS_001
  *Elset, elset=ASSEMBLYSUSPENSIONBRIDGE_SUSPENSIONBRIDGE_TOWER_SOUTH_CS_002
  *Elset, elset=ASSEMBLYSUSPENSIONBRIDGE_SUSPENSIONBRIDGE_TOWER_SOUTH_CS_003
  *Elset, elset=ASSEMBLYSUSPENSIONBRIDGE_SUSPENSIONBRIDGE_TOWER_SOUTH_CS_004
  *Elset, elset=ASSEMBLYSUSPENSIONBRIDGE_SUSPENSIONBRIDGE_TOWER_SOUTH_CS_005
  *Elset, elset=ASSEMBLYSUSPENSIONBRIDGE_SUSPENSIONBRIDGE_TOWER_SOUTH_CS_006
  *Elset, elset=ASSEMBLYSUSPENSIONBRIDGE_SUSPENSIONBRIDGE_TOWER_SOUTH_CS_007
  *Elset, elset=ASSEMBLYSUSPENSIONBRIDGE_SUSPENSIONBRIDGE_TOWER_SOUTH_CS_008
  *Elset, elset=ASSEMBLYSUSPENSIONBRIDGE_SUSPENSIONBRIDGE_TOWER_SOUTH_CS_009
  *Elset, elset=ASSEMBLYSUSPENSIONBRIDGE_SUSPENSIONBRIDGE_TOWER_SOUTH_CS_010
  *Elset, elset=ASSEMBLYSUSPENSIONBRIDGE_SUSPENSIONBRIDGE_TOWER_SOUTH_CS_011
  *Elset, elset=ASSEMBLYSUSPENSIONBRIDGE_SUSPENSIONBRIDGE_TOWER_SOUTH_CS_012
  *Elset, elset=ASSEMBLYSUSPENSIONBRIDGE_SUSPENSIONBRIDGE_TOWER_SOUTH_CS_013
  *Elset, elset=ASSEMBLYSUSPENSIONBRIDGE_SUSPENSIONBRIDGE_TOWER_SOUTH_CS_014
  *Elset, elset=ASSEMBLYSUSPENSIONBRIDGE_SUSPENSIONBRIDGE_TOWER_SOUTH_CS_015
  *Elset, elset=ASSEMBLYSUSPENSIONBRIDGE_SUSPENSIONBRIDGE_TOWER_SOUTH_CS_016
  *Elset, elset=ASSEMBLYSUSPENSIONBRIDGE_SUSPENSIONBRIDGE_TOWER_SOUTH_CS_017
  *Elset, elset=ASSEMBLYSUSPENSIONBRIDGE_SUSPENSIONBRIDGE_TOWER_SOUTH_CS_018
  *Elset, elset=ASSEMBLYSUSPENSIONBRIDGE_SUSPENSIONBRIDGE_TOWER_SOUTH_CS_019
  *Elset, elset=ASSEMBLYSUSPENSIONBRIDGE_SUSPENSIONBRIDGE_TOWER_SOUTH_CS_020
  *Elset, elset=ASSEMBLYSUSPENSIONBRIDGE_SUSPENSIONBRIDGE_TOWER_SOUTH_CS_021
  *Elset, elset=ASSEMBLYSUSPENSIONBRIDGE_SUSPENSIONBRIDGE_TOWER_SOUTH_CS_022
  *Elset, elset=ASSEMBLYSUSPENSIONBRIDGE_SUSPENSIONBRIDGE_TOWER_SOUTH_CS_023
  *Elset, elset=ASSEMBLYSUSPENSIONBRIDGE_SUSPENSIONBRIDGE_TOWER_SOUTH_CS_024
  *Elset, elset=ASSEMBLYSUSPENSIONBRIDGE_SUSPENSIONBRIDGE_TOWER_SOUTH_CS_025
  *Elset, elset=ASSEMBLYSUSPENSIONBRIDGE_SUSPENSIONBRIDGE_TOWER_SOUTH_CS_026
  *Elset, elset=ASSEMBLYSUSPENSIONBRIDGE_SUSPENSIONBRIDGE_TOWER_SOUTH_CS_027
  *Elset, elset=ASSEMBLYSUSPENSIONBRIDGE_SUSPENSIONBRIDGE_TOWER_SOUTH_CS_028
  *Elset, elset=ASSEMBLYSUSPENSIONBRIDGE_SUSPENSIONBRIDGE_TOWER_SOUTH_CS_029
  *Elset, elset=ASSEMBLYSUSPENSIONBRIDGE_SUSPENSIONBRIDGE_TOWER_SOUTH_CS_030
  *Elset, elset=ASSEMBLYSUSPENSIONBRIDGE_SUSPENSIONBRIDGE_TOWER_SOUTH_CS_031
  *Elset, elset=ASSEMBLYSUSPENSIONBRIDGE_SUSPENSIONBRIDGE_TOWER_SOUTH_CS_032
  *Elset, elset=ASSEMBLYSUSPENSIONBRIDGE_SUSPENSIONBRIDGE_TOWER_SOUTH_CS_033
  *Elset, elset=ASSEMBLYSUSPENSIONBRIDGE_SUSPENSIONBRIDGE_TOWER_SOUTH_CS_034
  *Elset, elset=ASSEMBLYSUSPENSIONBRIDGE_SUSPENSIONBRIDGE_TOWER_SOUTH_CS_035
  *Elset, elset=ASSEMBLYSUSPENSIONBRIDGE_SUSPENSIONBRIDGE_TOWER_SOUTH_CS_036
  *Elset, elset=ASSEMBLYSUSPENSIONBRIDGE_SUSPENSIONBRIDGE_TOWER_SOUTH_CS_037
  *Elset, elset=ASSEMBLYSUSPENSIONBRIDGE_SUSPENSIONBRIDGE_TOWER_SOUTH_CS_038
  *Elset, elset=ASSEMBLYSUSPENSIONBRIDGE_SUSPENSIONBRIDGE_TOWER_SOUTH_CS_039
  *Elset, elset=ASSEMBLYSUSPENSIONBRIDGE_SUSPENSIONBRIDGE_TOWER_SOUTH_CS_040
  *Elset, elset=ASSEMBLYSUSPENSIONBRIDGE_SUSPENSIONBRIDGE_TOWER_SOUTH_CS_041
  *Elset, elset=ASSEMBLYSUSPENSIONBRIDGE_SUSPENSIONBRIDGE_TOWER_SOUTH_CS_042
  *Elset, elset=ASSEMBLYSUSPENSIONBRIDGE_SUSPENSIONBRIDGE_TOWER_SOUTH_CS_043
  *Elset, elset=ASSEMBLYSUSPENSIONBRIDGE_SUSPENSIONBRIDGE_TOWER_SOUTH_CS_044
  *Elset, elset=ASSEMBLYSUSPENSIONBRIDGE_SUSPENSIONBRIDGE_TOWER_SOUTH_CS_045
  *Elset, elset=ASSEMBLYSUSPENSIONBRIDGE_SUSPENSIONBRIDGE_TOWER_SOUTH_CS_046
  *Elset, elset=ASSEMBLYSUSPENSIONBRIDGE_SUSPENSIONBRIDGE_TOWER_SOUTH_CS_047
  *Elset, elset=ASSEMBLYSUSPENSIONBRIDGE_SUSPENSIONBRIDGE_TOWER_SOUTH_CS_048
  *Elset, elset=ASSEMBLYSUSPENSIONBRIDGE_SUSPENSIONBRIDGE_TOWER_SOUTH_CS_049
  *Elset, elset=ASSEMBLYSUSPENSIONBRIDGE_SUSPENSIONBRIDGE_TOWER_SOUTH_CS_050
  *Elset, elset=ASSEMBLYSUSPENSIONBRIDGE_SUSPENSIONBRIDGE_TOWER_SOUTH_CS_051
  *Elset, elset=ASSEMBLYSUSPENSIONBRIDGE_SUSPENSIONBRIDGE_TOWER_SOUTH_CS_052
  *Elset, elset=ASSEMBLYSUSPENSIONBRIDGE_SUSPENSIONBRIDGE_TOWER_SOUTH_CS_053
  *Elset, elset=ASSEMBLYSUSPENSIONBRIDGE_SUSPENSIONBRIDGE_TOWER_SOUTH_CS_054
  *Elset, elset=ASSEMBLYSUSPENSIONBRIDGE_SUSPENSIONBRIDGE_TOWER_SOUTH_CS_055
  *Elset, elset=ASSEMBLYSUSPENSIONBRIDGE_SUSPENSIONBRIDGE_TOWER_SOUTH_CS_056
  *Elset, elset=ASSEMBLYSUSPENSIONBRIDGE_SUSPENSIONBRIDGE_TOWER_SOUTH_CS_057
  *Elset, elset=ASSEMBLYSUSPENSIONBRIDGE_SUSPENSIONBRIDGE_TOWER_SOUTH_CS_058
  *Elset, elset=ASSEMBLYSUSPENSIONBRIDGE_SUSPENSIONBRIDGE_TOWER_SOUTH_CS_059
  *Elset, elset=ASSEMBLYSUSPENSIONBRIDGE_SUSPENSIONBRIDGE_TOWER_SOUTH_CS_060
  *Elset, elset=ASSEMBLYSUSPENSIONBRIDGE_SUSPENSIONBRIDGE_TOWER_SOUTH_CS_061
  *Elset, elset=ASSEMBLYSUSPENSIONBRIDGE_SUSPENSIONBRIDGE_TOWER_SOUTH_CS_062
  *Elset, elset=ASSEMBLYSUSPENSIONBRIDGE_SUSPENSIONBRIDGE_TOWER_SOUTH_CS_063
  *Elset, elset=ASSEMBLYSUSPENSIONBRIDGE_SUSPENSIONBRIDGE_TOWER_SOUTH_CS_064
  *Elset, elset=ASSEMBLYSUSPENSIONBRIDGE_SUSPENSIONBRIDGE_TOWER_SOUTH_CS_065
  *Elset, elset=ASSEMBLYSUSPENSIONBRIDGE_SUSPENSIONBRIDGE_TOWER_SOUTH_CS_066
  *Elset, elset=ASSEMBLYSUSPENSIONBRIDGE_SUSPENSIONBRIDGE_TOWER_SOUTH_CS_067
  *Elset, elset=ASSEMBLYSUSPENSIONBRIDGE_SUSPENSIONBRIDGE_TOWER_SOUTH_CS_068
  *Elset, elset=ASSEMBLYSUSPENSIONBRIDGE_SUSPENSIONBRIDGE_TOWER_SOUTH_CS_069
  *Elset, elset=ASSEMBLYSUSPENSIONBRIDGE_SUSPENSIONBRIDGE_TOWER_SOUTH_CS_070
  *Elset, elset=ASSEMBLYSUSPENSIONBRIDGE_SUSPENSIONBRIDGE_TOWER_SOUTH_CS_071
  *Elset, elset=ASSEMBLYSUSPENSIONBRIDGE_SUSPENSIONBRIDGE_TOWER_SOUTH_CS_072
  *Elset, elset=ASSEMBLYSUSPENSIONBRIDGE_SUSPENSIONBRIDGE_TOWER_SOUTH_CS_073
  *Elset, elset=ASSEMBLYSUSPENSIONBRIDGE_SUSPENSIONBRIDGE_TOWER_SOUTH_CS_074
  *material, name=CONCRETE
  *elastic
  *density
  *material, name=SOFT
  *elastic
  *density
  *material, name=STEEL
  *elastic
  *density
  *beamgeneralsection, elset=ASSEMBLYSUSPENSIONBRIDGE_SUSPENSIONBRIDGE_CABLE_MAIN, density=7850, section=GENERAL
  *beamgeneralsection, elset=ASSEMBLYSUSPENSIONBRIDGE_SUSPENSIONBRIDGE_CABLE_TEMPSUPPORT, density=0, section=GENERAL
  *beamgeneralsection, elset=ASSEMBLYSUSPENSIONBRIDGE_SUSPENSIONBRIDGE_LATCONNOUTER, density=0, section=GENERAL
  *beamgeneralsection, elset=ASSEMBLYSUSPENSIONBRIDGE_SUSPENSIONBRIDGE_BRIDGEDECK1_COG, density=0, section=GENERAL
  *beamgeneralsection, elset=ASSEMBLYSUSPENSIONBRIDGE_SUSPENSIONBRIDGE_BRIDGEDECK2_COG, density=0, section=GENERAL
  *beamgeneralsection, elset=ASSEMBLYSUSPENSIONBRIDGE_SUSPENSIONBRIDGE_LATCONNINNER, density=0, section=GENERAL
  *beamgeneralsection, elset=ASSEMBLYSUSPENSIONBRIDGE_SUSPENSIONBRIDGE_HANGER, density=7850, section=GENERAL
  *beamgeneralsection, elset=ASSEMBLYSUSPENSIONBRIDGE_SUSPENSIONBRIDGE_BEARINGTOP, density=0, section=GENERAL
  *beamgeneralsection, elset=ASSEMBLYSUSPENSIONBRIDGE_SUSPENSIONBRIDGE_BEARINGLOW, density=0, section=GENERAL
  *beamgeneralsection, elset=ASSEMBLYSUSPENSIONBRIDGE_SUSPENSIONBRIDGE_CABLE_CLAMP, density=7850, section=GENERAL
  *spring, elset=ASSEMBLYSUSPENSIONBRIDGE_SUSPENSIONBRIDGE_SADLESPRING_X
  *spring, elset=ASSEMBLYSUSPENSIONBRIDGE_SUSPENSIONBRIDGE_SADLESPRING_Y
  *spring, elset=ASSEMBLYSUSPENSIONBRIDGE_SUSPENSIONBRIDGE_SADLESPRING_Z
  *spring, elset=ASSEMBLYSUSPENSIONBRIDGE_SUSPENSIONBRIDGE_BEARINGSPRING1_SOUTH_X
  *spring, elset=ASSEMBLYSUSPENSIONBRIDGE_SUSPENSIONBRIDGE_BEARINGSPRING1_SOUTH_Y
  *spring, elset=ASSEMBLYSUSPENSIONBRIDGE_SUSPENSIONBRIDGE_BEARINGSPRING1_SOUTH_Z
  *spring, elset=ASSEMBLYSUSPENSIONBRIDGE_SUSPENSIONBRIDGE_BEARINGSPRING1_SOUTH_RX
  *spring, elset=ASSEMBLYSUSPENSIONBRIDGE_SUSPENSIONBRIDGE_BEARINGSPRING1_SOUTH_RY
  *spring, elset=ASSEMBLYSUSPENSIONBRIDGE_SUSPENSIONBRIDGE_BEARINGSPRING1_SOUTH_RZ
  *spring, elset=ASSEMBLYSUSPENSIONBRIDGE_SUSPENSIONBRIDGE_BEARINGSPRING1_NORTH_X
  *spring, elset=ASSEMBLYSUSPENSIONBRIDGE_SUSPENSIONBRIDGE_BEARINGSPRING1_NORTH_Y
  *spring, elset=ASSEMBLYSUSPENSIONBRIDGE_SUSPENSIONBRIDGE_BEARINGSPRING1_NORTH_Z
  *spring, elset=ASSEMBLYSUSPENSIONBRIDGE_SUSPENSIONBRIDGE_BEARINGSPRING1_NORTH_RX
  *spring, elset=ASSEMBLYSUSPENSIONBRIDGE_SUSPENSIONBRIDGE_BEARINGSPRING1_NORTH_RY
  *spring, elset=ASSEMBLYSUSPENSIONBRIDGE_SUSPENSIONBRIDGE_BEARINGSPRING1_NORTH_RZ
  *spring, elset=ASSEMBLYSUSPENSIONBRIDGE_SUSPENSIONBRIDGE_BEARINGSPRING2_SOUTH_X
  *spring, elset=ASSEMBLYSUSPENSIONBRIDGE_SUSPENSIONBRIDGE_BEARINGSPRING2_SOUTH_Y
  *spring, elset=ASSEMBLYSUSPENSIONBRIDGE_SUSPENSIONBRIDGE_BEARINGSPRING2_SOUTH_Z
  *spring, elset=ASSEMBLYSUSPENSIONBRIDGE_SUSPENSIONBRIDGE_BEARINGSPRING2_SOUTH_RX
  *spring, elset=ASSEMBLYSUSPENSIONBRIDGE_SUSPENSIONBRIDGE_BEARINGSPRING2_SOUTH_RY
  *spring, elset=ASSEMBLYSUSPENSIONBRIDGE_SUSPENSIONBRIDGE_BEARINGSPRING2_SOUTH_RZ
  *spring, elset=ASSEMBLYSUSPENSIONBRIDGE_SUSPENSIONBRIDGE_BEARINGSPRING2_NORTH_X
  *spring, elset=ASSEMBLYSUSPENSIONBRIDGE_SUSPENSIONBRIDGE_BEARINGSPRING2_NORTH_Y
  *spring, elset=ASSEMBLYSUSPENSIONBRIDGE_SUSPENSIONBRIDGE_BEARINGSPRING2_NORTH_Z
  *spring, elset=ASSEMBLYSUSPENSIONBRIDGE_SUSPENSIONBRIDGE_BEARINGSPRING2_NORTH_RX
  *spring, elset=ASSEMBLYSUSPENSIONBRIDGE_SUSPENSIONBRIDGE_BEARINGSPRING2_NORTH_RY
  *spring, elset=ASSEMBLYSUSPENSIONBRIDGE_SUSPENSIONBRIDGE_BEARINGSPRING2_NORTH_RZ
  *shellsection, elset=ASSEMBLYSUSPENSIONBRIDGE_SUSPENSIONBRIDGE_BRIDGEDECK_SHELL, material=SOFT, offset=SNEG
  *beamsection, elset=ASSEMBLYSUSPENSIONBRIDGE_SUSPENSIONBRIDGE_TOWER_SOUTH_CS_001, material=CONCRETE, section=BOX

 ***WARNING: ONE OR MORE THICKNESS OF THE BOX SECTION IS GREATER THAN 0.1 OF 
             THE CROSS SECTION DIMENSION. THE TORSIONAL RIGIDITY MAY NOT BE 
             EVALUATED ACCURATELY SINCE THE CALCULATION IS BASED ON THE 
             ASSUMPTION THAT THE WALL THICKNESS IS MUCH SMALL IN COMPARISON TO 
             THE CROSS SECTION DIMENSION
  *beamsection, elset=ASSEMBLYSUSPENSIONBRIDGE_SUSPENSIONBRIDGE_TOWER_NORTH_CS_001, material=CONCRETE, section=BOX

 ***WARNING: ONE OR MORE THICKNESS OF THE BOX SECTION IS GREATER THAN 0.1 OF 
             THE CROSS SECTION DIMENSION. THE TORSIONAL RIGIDITY MAY NOT BE 
             EVALUATED ACCURATELY SINCE THE CALCULATION IS BASED ON THE 
             ASSUMPTION THAT THE WALL THICKNESS IS MUCH SMALL IN COMPARISON TO 
             THE CROSS SECTION DIMENSION
  *beamsection, elset=ASSEMBLYSUSPENSIONBRIDGE_SUSPENSIONBRIDGE_TOWER_SOUTH_CS_002, material=CONCRETE, section=BOX

 ***WARNING: ONE OR MORE THICKNESS OF THE BOX SECTION IS GREATER THAN 0.1 OF 
             THE CROSS SECTION DIMENSION. THE TORSIONAL RIGIDITY MAY NOT BE 
             EVALUATED ACCURATELY SINCE THE CALCULATION IS BASED ON THE 
             ASSUMPTION THAT THE WALL THICKNESS IS MUCH SMALL IN COMPARISON TO 
             THE CROSS SECTION DIMENSION
  *beamsection, elset=ASSEMBLYSUSPENSIONBRIDGE_SUSPENSIONBRIDGE_TOWER_NORTH_CS_002, material=CONCRETE, section=BOX

 ***WARNING: ONE OR MORE THICKNESS OF THE BOX SECTION IS GREATER THAN 0.1 OF 
             THE CROSS SECTION DIMENSION. THE TORSIONAL RIGIDITY MAY NOT BE 
             EVALUATED ACCURATELY SINCE THE CALCULATION IS BASED ON THE 
             ASSUMPTION THAT THE WALL THICKNESS IS MUCH SMALL IN COMPARISON TO 
             THE CROSS SECTION DIMENSION
  *beamsection, elset=ASSEMBLYSUSPENSIONBRIDGE_SUSPENSIONBRIDGE_TOWER_SOUTH_CS_003, material=CONCRETE, section=BOX

 ***WARNING: ONE OR MORE THICKNESS OF THE BOX SECTION IS GREATER THAN 0.1 OF 
             THE CROSS SECTION DIMENSION. THE TORSIONAL RIGIDITY MAY NOT BE 
             EVALUATED ACCURATELY SINCE THE CALCULATION IS BASED ON THE 
             ASSUMPTION THAT THE WALL THICKNESS IS MUCH SMALL IN COMPARISON TO 
             THE CROSS SECTION DIMENSION
  *beamsection, elset=ASSEMBLYSUSPENSIONBRIDGE_SUSPENSIONBRIDGE_TOWER_NORTH_CS_003, material=CONCRETE, section=BOX

 ***WARNING: ONE OR MORE THICKNESS OF THE BOX SECTION IS GREATER THAN 0.1 OF 
             THE CROSS SECTION DIMENSION. THE TORSIONAL RIGIDITY MAY NOT BE 
             EVALUATED ACCURATELY SINCE THE CALCULATION IS BASED ON THE 
             ASSUMPTION THAT THE WALL THICKNESS IS MUCH SMALL IN COMPARISON TO 
             THE CROSS SECTION DIMENSION
  *beamsection, elset=ASSEMBLYSUSPENSIONBRIDGE_SUSPENSIONBRIDGE_TOWER_SOUTH_CS_004, material=CONCRETE, section=BOX

 ***WARNING: ONE OR MORE THICKNESS OF THE BOX SECTION IS GREATER THAN 0.1 OF 
             THE CROSS SECTION DIMENSION. THE TORSIONAL RIGIDITY MAY NOT BE 
             EVALUATED ACCURATELY SINCE THE CALCULATION IS BASED ON THE 
             ASSUMPTION THAT THE WALL THICKNESS IS MUCH SMALL IN COMPARISON TO 
             THE CROSS SECTION DIMENSION
  *beamsection, elset=ASSEMBLYSUSPENSIONBRIDGE_SUSPENSIONBRIDGE_TOWER_NORTH_CS_004, material=CONCRETE, section=BOX

 ***WARNING: ONE OR MORE THICKNESS OF THE BOX SECTION IS GREATER THAN 0.1 OF 
             THE CROSS SECTION DIMENSION. THE TORSIONAL RIGIDITY MAY NOT BE 
             EVALUATED ACCURATELY SINCE THE CALCULATION IS BASED ON THE 
             ASSUMPTION THAT THE WALL THICKNESS IS MUCH SMALL IN COMPARISON TO 
             THE CROSS SECTION DIMENSION
  *beamsection, elset=ASSEMBLYSUSPENSIONBRIDGE_SUSPENSIONBRIDGE_TOWER_SOUTH_CS_005, material=CONCRETE, section=BOX

 ***WARNING: ONE OR MORE THICKNESS OF THE BOX SECTION IS GREATER THAN 0.1 OF 
             THE CROSS SECTION DIMENSION. THE TORSIONAL RIGIDITY MAY NOT BE 
             EVALUATED ACCURATELY SINCE THE CALCULATION IS BASED ON THE 
             ASSUMPTION THAT THE WALL THICKNESS IS MUCH SMALL IN COMPARISON TO 
             THE CROSS SECTION DIMENSION
  *beamsection, elset=ASSEMBLYSUSPENSIONBRIDGE_SUSPENSIONBRIDGE_TOWER_NORTH_CS_005, material=CONCRETE, section=BOX

 ***WARNING: ONE OR MORE THICKNESS OF THE BOX SECTION IS GREATER THAN 0.1 OF 
             THE CROSS SECTION DIMENSION. THE TORSIONAL RIGIDITY MAY NOT BE 
             EVALUATED ACCURATELY SINCE THE CALCULATION IS BASED ON THE 
             ASSUMPTION THAT THE WALL THICKNESS IS MUCH SMALL IN COMPARISON TO 
             THE CROSS SECTION DIMENSION
  *beamsection, elset=ASSEMBLYSUSPENSIONBRIDGE_SUSPENSIONBRIDGE_TOWER_SOUTH_CS_006, material=CONCRETE, section=BOX

 ***WARNING: ONE OR MORE THICKNESS OF THE BOX SECTION IS GREATER THAN 0.1 OF 
             THE CROSS SECTION DIMENSION. THE TORSIONAL RIGIDITY MAY NOT BE 
             EVALUATED ACCURATELY SINCE THE CALCULATION IS BASED ON THE 
             ASSUMPTION THAT THE WALL THICKNESS IS MUCH SMALL IN COMPARISON TO 
             THE CROSS SECTION DIMENSION
  *beamsection, elset=ASSEMBLYSUSPENSIONBRIDGE_SUSPENSIONBRIDGE_TOWER_NORTH_CS_006, material=CONCRETE, section=BOX

 ***WARNING: ONE OR MORE THICKNESS OF THE BOX SECTION IS GREATER THAN 0.1 OF 
             THE CROSS SECTION DIMENSION. THE TORSIONAL RIGIDITY MAY NOT BE 
             EVALUATED ACCURATELY SINCE THE CALCULATION IS BASED ON THE 
             ASSUMPTION THAT THE WALL THICKNESS IS MUCH SMALL IN COMPARISON TO 
             THE CROSS SECTION DIMENSION
  *beamsection, elset=ASSEMBLYSUSPENSIONBRIDGE_SUSPENSIONBRIDGE_TOWER_SOUTH_CS_007, material=CONCRETE, section=BOX

 ***WARNING: ONE OR MORE THICKNESS OF THE BOX SECTION IS GREATER THAN 0.1 OF 
             THE CROSS SECTION DIMENSION. THE TORSIONAL RIGIDITY MAY NOT BE 
             EVALUATED ACCURATELY SINCE THE CALCULATION IS BASED ON THE 
             ASSUMPTION THAT THE WALL THICKNESS IS MUCH SMALL IN COMPARISON TO 
             THE CROSS SECTION DIMENSION
  *beamsection, elset=ASSEMBLYSUSPENSIONBRIDGE_SUSPENSIONBRIDGE_TOWER_NORTH_CS_007, material=CONCRETE, section=BOX

 ***WARNING: ONE OR MORE THICKNESS OF THE BOX SECTION IS GREATER THAN 0.1 OF 
             THE CROSS SECTION DIMENSION. THE TORSIONAL RIGIDITY MAY NOT BE 
             EVALUATED ACCURATELY SINCE THE CALCULATION IS BASED ON THE 
             ASSUMPTION THAT THE WALL THICKNESS IS MUCH SMALL IN COMPARISON TO 
             THE CROSS SECTION DIMENSION
  *beamsection, elset=ASSEMBLYSUSPENSIONBRIDGE_SUSPENSIONBRIDGE_TOWER_SOUTH_CS_008, material=CONCRETE, section=BOX

 ***WARNING: ONE OR MORE THICKNESS OF THE BOX SECTION IS GREATER THAN 0.1 OF 
             THE CROSS SECTION DIMENSION. THE TORSIONAL RIGIDITY MAY NOT BE 
             EVALUATED ACCURATELY SINCE THE CALCULATION IS BASED ON THE 
             ASSUMPTION THAT THE WALL THICKNESS IS MUCH SMALL IN COMPARISON TO 
             THE CROSS SECTION DIMENSION
  *beamsection, elset=ASSEMBLYSUSPENSIONBRIDGE_SUSPENSIONBRIDGE_TOWER_NORTH_CS_008, material=CONCRETE, section=BOX

 ***WARNING: ONE OR MORE THICKNESS OF THE BOX SECTION IS GREATER THAN 0.1 OF 
             THE CROSS SECTION DIMENSION. THE TORSIONAL RIGIDITY MAY NOT BE 
             EVALUATED ACCURATELY SINCE THE CALCULATION IS BASED ON THE 
             ASSUMPTION THAT THE WALL THICKNESS IS MUCH SMALL IN COMPARISON TO 
             THE CROSS SECTION DIMENSION
  *beamsection, elset=ASSEMBLYSUSPENSIONBRIDGE_SUSPENSIONBRIDGE_TOWER_SOUTH_CS_009, material=CONCRETE, section=BOX

 ***WARNING: ONE OR MORE THICKNESS OF THE BOX SECTION IS GREATER THAN 0.1 OF 
             THE CROSS SECTION DIMENSION. THE TORSIONAL RIGIDITY MAY NOT BE 
             EVALUATED ACCURATELY SINCE THE CALCULATION IS BASED ON THE 
             ASSUMPTION THAT THE WALL THICKNESS IS MUCH SMALL IN COMPARISON TO 
             THE CROSS SECTION DIMENSION
  *beamsection, elset=ASSEMBLYSUSPENSIONBRIDGE_SUSPENSIONBRIDGE_TOWER_NORTH_CS_009, material=CONCRETE, section=BOX

 ***WARNING: ONE OR MORE THICKNESS OF THE BOX SECTION IS GREATER THAN 0.1 OF 
             THE CROSS SECTION DIMENSION. THE TORSIONAL RIGIDITY MAY NOT BE 
             EVALUATED ACCURATELY SINCE THE CALCULATION IS BASED ON THE 
             ASSUMPTION THAT THE WALL THICKNESS IS MUCH SMALL IN COMPARISON TO 
             THE CROSS SECTION DIMENSION
  *beamsection, elset=ASSEMBLYSUSPENSIONBRIDGE_SUSPENSIONBRIDGE_TOWER_SOUTH_CS_010, material=CONCRETE, section=BOX

 ***WARNING: ONE OR MORE THICKNESS OF THE BOX SECTION IS GREATER THAN 0.1 OF 
             THE CROSS SECTION DIMENSION. THE TORSIONAL RIGIDITY MAY NOT BE 
             EVALUATED ACCURATELY SINCE THE CALCULATION IS BASED ON THE 
             ASSUMPTION THAT THE WALL THICKNESS IS MUCH SMALL IN COMPARISON TO 
             THE CROSS SECTION DIMENSION
  *beamsection, elset=ASSEMBLYSUSPENSIONBRIDGE_SUSPENSIONBRIDGE_TOWER_NORTH_CS_010, material=CONCRETE, section=BOX

 ***WARNING: ONE OR MORE THICKNESS OF THE BOX SECTION IS GREATER THAN 0.1 OF 
             THE CROSS SECTION DIMENSION. THE TORSIONAL RIGIDITY MAY NOT BE 
             EVALUATED ACCURATELY SINCE THE CALCULATION IS BASED ON THE 
             ASSUMPTION THAT THE WALL THICKNESS IS MUCH SMALL IN COMPARISON TO 
             THE CROSS SECTION DIMENSION
  *beamsection, elset=ASSEMBLYSUSPENSIONBRIDGE_SUSPENSIONBRIDGE_TOWER_SOUTH_CS_011, material=CONCRETE, section=BOX

 ***WARNING: ONE OR MORE THICKNESS OF THE BOX SECTION IS GREATER THAN 0.1 OF 
             THE CROSS SECTION DIMENSION. THE TORSIONAL RIGIDITY MAY NOT BE 
             EVALUATED ACCURATELY SINCE THE CALCULATION IS BASED ON THE 
             ASSUMPTION THAT THE WALL THICKNESS IS MUCH SMALL IN COMPARISON TO 
             THE CROSS SECTION DIMENSION
  *beamsection, elset=ASSEMBLYSUSPENSIONBRIDGE_SUSPENSIONBRIDGE_TOWER_NORTH_CS_011, material=CONCRETE, section=BOX

 ***WARNING: ONE OR MORE THICKNESS OF THE BOX SECTION IS GREATER THAN 0.1 OF 
             THE CROSS SECTION DIMENSION. THE TORSIONAL RIGIDITY MAY NOT BE 
             EVALUATED ACCURATELY SINCE THE CALCULATION IS BASED ON THE 
             ASSUMPTION THAT THE WALL THICKNESS IS MUCH SMALL IN COMPARISON TO 
             THE CROSS SECTION DIMENSION
  *beamsection, elset=ASSEMBLYSUSPENSIONBRIDGE_SUSPENSIONBRIDGE_TOWER_SOUTH_CS_012, material=CONCRETE, section=BOX

 ***WARNING: ONE OR MORE THICKNESS OF THE BOX SECTION IS GREATER THAN 0.1 OF 
             THE CROSS SECTION DIMENSION. THE TORSIONAL RIGIDITY MAY NOT BE 
             EVALUATED ACCURATELY SINCE THE CALCULATION IS BASED ON THE 
             ASSUMPTION THAT THE WALL THICKNESS IS MUCH SMALL IN COMPARISON TO 
             THE CROSS SECTION DIMENSION
  *beamsection, elset=ASSEMBLYSUSPENSIONBRIDGE_SUSPENSIONBRIDGE_TOWER_NORTH_CS_012, material=CONCRETE, section=BOX

 ***WARNING: ONE OR MORE THICKNESS OF THE BOX SECTION IS GREATER THAN 0.1 OF 
             THE CROSS SECTION DIMENSION. THE TORSIONAL RIGIDITY MAY NOT BE 
             EVALUATED ACCURATELY SINCE THE CALCULATION IS BASED ON THE 
             ASSUMPTION THAT THE WALL THICKNESS IS MUCH SMALL IN COMPARISON TO 
             THE CROSS SECTION DIMENSION
  *beamsection, elset=ASSEMBLYSUSPENSIONBRIDGE_SUSPENSIONBRIDGE_TOWER_SOUTH_CS_013, material=CONCRETE, section=BOX

 ***WARNING: ONE OR MORE THICKNESS OF THE BOX SECTION IS GREATER THAN 0.1 OF 
             THE CROSS SECTION DIMENSION. THE TORSIONAL RIGIDITY MAY NOT BE 
             EVALUATED ACCURATELY SINCE THE CALCULATION IS BASED ON THE 
             ASSUMPTION THAT THE WALL THICKNESS IS MUCH SMALL IN COMPARISON TO 
             THE CROSS SECTION DIMENSION
  *beamsection, elset=ASSEMBLYSUSPENSIONBRIDGE_SUSPENSIONBRIDGE_TOWER_NORTH_CS_013, material=CONCRETE, section=BOX

 ***WARNING: ONE OR MORE THICKNESS OF THE BOX SECTION IS GREATER THAN 0.1 OF 
             THE CROSS SECTION DIMENSION. THE TORSIONAL RIGIDITY MAY NOT BE 
             EVALUATED ACCURATELY SINCE THE CALCULATION IS BASED ON THE 
             ASSUMPTION THAT THE WALL THICKNESS IS MUCH SMALL IN COMPARISON TO 
             THE CROSS SECTION DIMENSION
  *beamsection, elset=ASSEMBLYSUSPENSIONBRIDGE_SUSPENSIONBRIDGE_TOWER_SOUTH_CS_014, material=CONCRETE, section=BOX

 ***WARNING: ONE OR MORE THICKNESS OF THE BOX SECTION IS GREATER THAN 0.1 OF 
             THE CROSS SECTION DIMENSION. THE TORSIONAL RIGIDITY MAY NOT BE 
             EVALUATED ACCURATELY SINCE THE CALCULATION IS BASED ON THE 
             ASSUMPTION THAT THE WALL THICKNESS IS MUCH SMALL IN COMPARISON TO 
             THE CROSS SECTION DIMENSION
  *beamsection, elset=ASSEMBLYSUSPENSIONBRIDGE_SUSPENSIONBRIDGE_TOWER_NORTH_CS_014, material=CONCRETE, section=BOX

 ***WARNING: ONE OR MORE THICKNESS OF THE BOX SECTION IS GREATER THAN 0.1 OF 
             THE CROSS SECTION DIMENSION. THE TORSIONAL RIGIDITY MAY NOT BE 
             EVALUATED ACCURATELY SINCE THE CALCULATION IS BASED ON THE 
             ASSUMPTION THAT THE WALL THICKNESS IS MUCH SMALL IN COMPARISON TO 
             THE CROSS SECTION DIMENSION
  *beamsection, elset=ASSEMBLYSUSPENSIONBRIDGE_SUSPENSIONBRIDGE_TOWER_SOUTH_CS_015, material=CONCRETE, section=BOX

 ***WARNING: ONE OR MORE THICKNESS OF THE BOX SECTION IS GREATER THAN 0.1 OF 
             THE CROSS SECTION DIMENSION. THE TORSIONAL RIGIDITY MAY NOT BE 
             EVALUATED ACCURATELY SINCE THE CALCULATION IS BASED ON THE 
             ASSUMPTION THAT THE WALL THICKNESS IS MUCH SMALL IN COMPARISON TO 
             THE CROSS SECTION DIMENSION
  *beamsection, elset=ASSEMBLYSUSPENSIONBRIDGE_SUSPENSIONBRIDGE_TOWER_NORTH_CS_015, material=CONCRETE, section=BOX

 ***WARNING: ONE OR MORE THICKNESS OF THE BOX SECTION IS GREATER THAN 0.1 OF 
             THE CROSS SECTION DIMENSION. THE TORSIONAL RIGIDITY MAY NOT BE 
             EVALUATED ACCURATELY SINCE THE CALCULATION IS BASED ON THE 
             ASSUMPTION THAT THE WALL THICKNESS IS MUCH SMALL IN COMPARISON TO 
             THE CROSS SECTION DIMENSION
  *beamsection, elset=ASSEMBLYSUSPENSIONBRIDGE_SUSPENSIONBRIDGE_TOWER_SOUTH_CS_016, material=CONCRETE, section=BOX

 ***WARNING: ONE OR MORE THICKNESS OF THE BOX SECTION IS GREATER THAN 0.1 OF 
             THE CROSS SECTION DIMENSION. THE TORSIONAL RIGIDITY MAY NOT BE 
             EVALUATED ACCURATELY SINCE THE CALCULATION IS BASED ON THE 
             ASSUMPTION THAT THE WALL THICKNESS IS MUCH SMALL IN COMPARISON TO 
             THE CROSS SECTION DIMENSION
  *beamsection, elset=ASSEMBLYSUSPENSIONBRIDGE_SUSPENSIONBRIDGE_TOWER_NORTH_CS_016, material=CONCRETE, section=BOX

 ***WARNING: ONE OR MORE THICKNESS OF THE BOX SECTION IS GREATER THAN 0.1 OF 
             THE CROSS SECTION DIMENSION. THE TORSIONAL RIGIDITY MAY NOT BE 
             EVALUATED ACCURATELY SINCE THE CALCULATION IS BASED ON THE 
             ASSUMPTION THAT THE WALL THICKNESS IS MUCH SMALL IN COMPARISON TO 
             THE CROSS SECTION DIMENSION
  *beamsection, elset=ASSEMBLYSUSPENSIONBRIDGE_SUSPENSIONBRIDGE_TOWER_SOUTH_CS_017, material=CONCRETE, section=BOX

 ***WARNING: ONE OR MORE THICKNESS OF THE BOX SECTION IS GREATER THAN 0.1 OF 
             THE CROSS SECTION DIMENSION. THE TORSIONAL RIGIDITY MAY NOT BE 
             EVALUATED ACCURATELY SINCE THE CALCULATION IS BASED ON THE 
             ASSUMPTION THAT THE WALL THICKNESS IS MUCH SMALL IN COMPARISON TO 
             THE CROSS SECTION DIMENSION
  *beamsection, elset=ASSEMBLYSUSPENSIONBRIDGE_SUSPENSIONBRIDGE_TOWER_NORTH_CS_017, material=CONCRETE, section=BOX

 ***WARNING: ONE OR MORE THICKNESS OF THE BOX SECTION IS GREATER THAN 0.1 OF 
             THE CROSS SECTION DIMENSION. THE TORSIONAL RIGIDITY MAY NOT BE 
             EVALUATED ACCURATELY SINCE THE CALCULATION IS BASED ON THE 
             ASSUMPTION THAT THE WALL THICKNESS IS MUCH SMALL IN COMPARISON TO 
             THE CROSS SECTION DIMENSION
  *beamsection, elset=ASSEMBLYSUSPENSIONBRIDGE_SUSPENSIONBRIDGE_TOWER_SOUTH_CS_018, material=CONCRETE, section=BOX

 ***WARNING: ONE OR MORE THICKNESS OF THE BOX SECTION IS GREATER THAN 0.1 OF 
             THE CROSS SECTION DIMENSION. THE TORSIONAL RIGIDITY MAY NOT BE 
             EVALUATED ACCURATELY SINCE THE CALCULATION IS BASED ON THE 
             ASSUMPTION THAT THE WALL THICKNESS IS MUCH SMALL IN COMPARISON TO 
             THE CROSS SECTION DIMENSION
  *beamsection, elset=ASSEMBLYSUSPENSIONBRIDGE_SUSPENSIONBRIDGE_TOWER_NORTH_CS_018, material=CONCRETE, section=BOX

 ***WARNING: ONE OR MORE THICKNESS OF THE BOX SECTION IS GREATER THAN 0.1 OF 
             THE CROSS SECTION DIMENSION. THE TORSIONAL RIGIDITY MAY NOT BE 
             EVALUATED ACCURATELY SINCE THE CALCULATION IS BASED ON THE 
             ASSUMPTION THAT THE WALL THICKNESS IS MUCH SMALL IN COMPARISON TO 
             THE CROSS SECTION DIMENSION
  *beamsection, elset=ASSEMBLYSUSPENSIONBRIDGE_SUSPENSIONBRIDGE_TOWER_SOUTH_CS_019, material=CONCRETE, section=BOX

 ***WARNING: ONE OR MORE THICKNESS OF THE BOX SECTION IS GREATER THAN 0.1 OF 
             THE CROSS SECTION DIMENSION. THE TORSIONAL RIGIDITY MAY NOT BE 
             EVALUATED ACCURATELY SINCE THE CALCULATION IS BASED ON THE 
             ASSUMPTION THAT THE WALL THICKNESS IS MUCH SMALL IN COMPARISON TO 
             THE CROSS SECTION DIMENSION
  *beamsection, elset=ASSEMBLYSUSPENSIONBRIDGE_SUSPENSIONBRIDGE_TOWER_NORTH_CS_019, material=CONCRETE, section=BOX

 ***WARNING: ONE OR MORE THICKNESS OF THE BOX SECTION IS GREATER THAN 0.1 OF 
             THE CROSS SECTION DIMENSION. THE TORSIONAL RIGIDITY MAY NOT BE 
             EVALUATED ACCURATELY SINCE THE CALCULATION IS BASED ON THE 
             ASSUMPTION THAT THE WALL THICKNESS IS MUCH SMALL IN COMPARISON TO 
             THE CROSS SECTION DIMENSION
  *beamsection, elset=ASSEMBLYSUSPENSIONBRIDGE_SUSPENSIONBRIDGE_TOWER_SOUTH_CS_020, material=CONCRETE, section=BOX

 ***WARNING: ONE OR MORE THICKNESS OF THE BOX SECTION IS GREATER THAN 0.1 OF 
             THE CROSS SECTION DIMENSION. THE TORSIONAL RIGIDITY MAY NOT BE 
             EVALUATED ACCURATELY SINCE THE CALCULATION IS BASED ON THE 
             ASSUMPTION THAT THE WALL THICKNESS IS MUCH SMALL IN COMPARISON TO 
             THE CROSS SECTION DIMENSION
  *beamsection, elset=ASSEMBLYSUSPENSIONBRIDGE_SUSPENSIONBRIDGE_TOWER_NORTH_CS_020, material=CONCRETE, section=BOX

 ***WARNING: ONE OR MORE THICKNESS OF THE BOX SECTION IS GREATER THAN 0.1 OF 
             THE CROSS SECTION DIMENSION. THE TORSIONAL RIGIDITY MAY NOT BE 
             EVALUATED ACCURATELY SINCE THE CALCULATION IS BASED ON THE 
             ASSUMPTION THAT THE WALL THICKNESS IS MUCH SMALL IN COMPARISON TO 
             THE CROSS SECTION DIMENSION
  *beamsection, elset=ASSEMBLYSUSPENSIONBRIDGE_SUSPENSIONBRIDGE_TOWER_SOUTH_CS_021, material=CONCRETE, section=BOX

 ***WARNING: ONE OR MORE THICKNESS OF THE BOX SECTION IS GREATER THAN 0.1 OF 
             THE CROSS SECTION DIMENSION. THE TORSIONAL RIGIDITY MAY NOT BE 
             EVALUATED ACCURATELY SINCE THE CALCULATION IS BASED ON THE 
             ASSUMPTION THAT THE WALL THICKNESS IS MUCH SMALL IN COMPARISON TO 
             THE CROSS SECTION DIMENSION
  *beamsection, elset=ASSEMBLYSUSPENSIONBRIDGE_SUSPENSIONBRIDGE_TOWER_NORTH_CS_021, material=CONCRETE, section=BOX

 ***WARNING: ONE OR MORE THICKNESS OF THE BOX SECTION IS GREATER THAN 0.1 OF 
             THE CROSS SECTION DIMENSION. THE TORSIONAL RIGIDITY MAY NOT BE 
             EVALUATED ACCURATELY SINCE THE CALCULATION IS BASED ON THE 
             ASSUMPTION THAT THE WALL THICKNESS IS MUCH SMALL IN COMPARISON TO 
             THE CROSS SECTION DIMENSION
  *beamsection, elset=ASSEMBLYSUSPENSIONBRIDGE_SUSPENSIONBRIDGE_TOWER_SOUTH_CS_022, material=CONCRETE, section=BOX

 ***WARNING: ONE OR MORE THICKNESS OF THE BOX SECTION IS GREATER THAN 0.1 OF 
             THE CROSS SECTION DIMENSION. THE TORSIONAL RIGIDITY MAY NOT BE 
             EVALUATED ACCURATELY SINCE THE CALCULATION IS BASED ON THE 
             ASSUMPTION THAT THE WALL THICKNESS IS MUCH SMALL IN COMPARISON TO 
             THE CROSS SECTION DIMENSION
  *beamsection, elset=ASSEMBLYSUSPENSIONBRIDGE_SUSPENSIONBRIDGE_TOWER_NORTH_CS_022, material=CONCRETE, section=BOX

 ***WARNING: ONE OR MORE THICKNESS OF THE BOX SECTION IS GREATER THAN 0.1 OF 
             THE CROSS SECTION DIMENSION. THE TORSIONAL RIGIDITY MAY NOT BE 
             EVALUATED ACCURATELY SINCE THE CALCULATION IS BASED ON THE 
             ASSUMPTION THAT THE WALL THICKNESS IS MUCH SMALL IN COMPARISON TO 
             THE CROSS SECTION DIMENSION
  *beamsection, elset=ASSEMBLYSUSPENSIONBRIDGE_SUSPENSIONBRIDGE_TOWER_SOUTH_CS_023, material=CONCRETE, section=BOX

 ***WARNING: ONE OR MORE THICKNESS OF THE BOX SECTION IS GREATER THAN 0.1 OF 
             THE CROSS SECTION DIMENSION. THE TORSIONAL RIGIDITY MAY NOT BE 
             EVALUATED ACCURATELY SINCE THE CALCULATION IS BASED ON THE 
             ASSUMPTION THAT THE WALL THICKNESS IS MUCH SMALL IN COMPARISON TO 
             THE CROSS SECTION DIMENSION
  *beamsection, elset=ASSEMBLYSUSPENSIONBRIDGE_SUSPENSIONBRIDGE_TOWER_NORTH_CS_023, material=CONCRETE, section=BOX

 ***WARNING: ONE OR MORE THICKNESS OF THE BOX SECTION IS GREATER THAN 0.1 OF 
             THE CROSS SECTION DIMENSION. THE TORSIONAL RIGIDITY MAY NOT BE 
             EVALUATED ACCURATELY SINCE THE CALCULATION IS BASED ON THE 
             ASSUMPTION THAT THE WALL THICKNESS IS MUCH SMALL IN COMPARISON TO 
             THE CROSS SECTION DIMENSION
  *beamsection, elset=ASSEMBLYSUSPENSIONBRIDGE_SUSPENSIONBRIDGE_TOWER_SOUTH_CS_024, material=CONCRETE, section=BOX

 ***WARNING: ONE OR MORE THICKNESS OF THE BOX SECTION IS GREATER THAN 0.1 OF 
             THE CROSS SECTION DIMENSION. THE TORSIONAL RIGIDITY MAY NOT BE 
             EVALUATED ACCURATELY SINCE THE CALCULATION IS BASED ON THE 
             ASSUMPTION THAT THE WALL THICKNESS IS MUCH SMALL IN COMPARISON TO 
             THE CROSS SECTION DIMENSION
  *beamsection, elset=ASSEMBLYSUSPENSIONBRIDGE_SUSPENSIONBRIDGE_TOWER_NORTH_CS_024, material=CONCRETE, section=BOX

 ***WARNING: ONE OR MORE THICKNESS OF THE BOX SECTION IS GREATER THAN 0.1 OF 
             THE CROSS SECTION DIMENSION. THE TORSIONAL RIGIDITY MAY NOT BE 
             EVALUATED ACCURATELY SINCE THE CALCULATION IS BASED ON THE 
             ASSUMPTION THAT THE WALL THICKNESS IS MUCH SMALL IN COMPARISON TO 
             THE CROSS SECTION DIMENSION
  *beamsection, elset=ASSEMBLYSUSPENSIONBRIDGE_SUSPENSIONBRIDGE_TOWER_SOUTH_CS_025, material=CONCRETE, section=BOX

 ***WARNING: ONE OR MORE THICKNESS OF THE BOX SECTION IS GREATER THAN 0.1 OF 
             THE CROSS SECTION DIMENSION. THE TORSIONAL RIGIDITY MAY NOT BE 
             EVALUATED ACCURATELY SINCE THE CALCULATION IS BASED ON THE 
             ASSUMPTION THAT THE WALL THICKNESS IS MUCH SMALL IN COMPARISON TO 
             THE CROSS SECTION DIMENSION
  *beamsection, elset=ASSEMBLYSUSPENSIONBRIDGE_SUSPENSIONBRIDGE_TOWER_NORTH_CS_025, material=CONCRETE, section=BOX

 ***WARNING: ONE OR MORE THICKNESS OF THE BOX SECTION IS GREATER THAN 0.1 OF 
             THE CROSS SECTION DIMENSION. THE TORSIONAL RIGIDITY MAY NOT BE 
             EVALUATED ACCURATELY SINCE THE CALCULATION IS BASED ON THE 
             ASSUMPTION THAT THE WALL THICKNESS IS MUCH SMALL IN COMPARISON TO 
             THE CROSS SECTION DIMENSION
  *beamsection, elset=ASSEMBLYSUSPENSIONBRIDGE_SUSPENSIONBRIDGE_TOWER_SOUTH_CS_026, material=CONCRETE, section=BOX

 ***WARNING: ONE OR MORE THICKNESS OF THE BOX SECTION IS GREATER THAN 0.1 OF 
             THE CROSS SECTION DIMENSION. THE TORSIONAL RIGIDITY MAY NOT BE 
             EVALUATED ACCURATELY SINCE THE CALCULATION IS BASED ON THE 
             ASSUMPTION THAT THE WALL THICKNESS IS MUCH SMALL IN COMPARISON TO 
             THE CROSS SECTION DIMENSION
  *beamsection, elset=ASSEMBLYSUSPENSIONBRIDGE_SUSPENSIONBRIDGE_TOWER_NORTH_CS_026, material=CONCRETE, section=BOX

 ***WARNING: ONE OR MORE THICKNESS OF THE BOX SECTION IS GREATER THAN 0.1 OF 
             THE CROSS SECTION DIMENSION. THE TORSIONAL RIGIDITY MAY NOT BE 
             EVALUATED ACCURATELY SINCE THE CALCULATION IS BASED ON THE 
             ASSUMPTION THAT THE WALL THICKNESS IS MUCH SMALL IN COMPARISON TO 
             THE CROSS SECTION DIMENSION
  *beamsection, elset=ASSEMBLYSUSPENSIONBRIDGE_SUSPENSIONBRIDGE_TOWER_SOUTH_CS_027, material=CONCRETE, section=BOX

 ***WARNING: ONE OR MORE THICKNESS OF THE BOX SECTION IS GREATER THAN 0.1 OF 
             THE CROSS SECTION DIMENSION. THE TORSIONAL RIGIDITY MAY NOT BE 
             EVALUATED ACCURATELY SINCE THE CALCULATION IS BASED ON THE 
             ASSUMPTION THAT THE WALL THICKNESS IS MUCH SMALL IN COMPARISON TO 
             THE CROSS SECTION DIMENSION
  *beamsection, elset=ASSEMBLYSUSPENSIONBRIDGE_SUSPENSIONBRIDGE_TOWER_NORTH_CS_027, material=CONCRETE, section=BOX

 ***WARNING: ONE OR MORE THICKNESS OF THE BOX SECTION IS GREATER THAN 0.1 OF 
             THE CROSS SECTION DIMENSION. THE TORSIONAL RIGIDITY MAY NOT BE 
             EVALUATED ACCURATELY SINCE THE CALCULATION IS BASED ON THE 
             ASSUMPTION THAT THE WALL THICKNESS IS MUCH SMALL IN COMPARISON TO 
             THE CROSS SECTION DIMENSION
  *beamsection, elset=ASSEMBLYSUSPENSIONBRIDGE_SUSPENSIONBRIDGE_TOWER_SOUTH_CS_028, material=CONCRETE, section=BOX

 ***WARNING: ONE OR MORE THICKNESS OF THE BOX SECTION IS GREATER THAN 0.1 OF 
             THE CROSS SECTION DIMENSION. THE TORSIONAL RIGIDITY MAY NOT BE 
             EVALUATED ACCURATELY SINCE THE CALCULATION IS BASED ON THE 
             ASSUMPTION THAT THE WALL THICKNESS IS MUCH SMALL IN COMPARISON TO 
             THE CROSS SECTION DIMENSION
  *beamsection, elset=ASSEMBLYSUSPENSIONBRIDGE_SUSPENSIONBRIDGE_TOWER_NORTH_CS_028, material=CONCRETE, section=BOX

 ***WARNING: ONE OR MORE THICKNESS OF THE BOX SECTION IS GREATER THAN 0.1 OF 
             THE CROSS SECTION DIMENSION. THE TORSIONAL RIGIDITY MAY NOT BE 
             EVALUATED ACCURATELY SINCE THE CALCULATION IS BASED ON THE 
             ASSUMPTION THAT THE WALL THICKNESS IS MUCH SMALL IN COMPARISON TO 
             THE CROSS SECTION DIMENSION
  *beamsection, elset=ASSEMBLYSUSPENSIONBRIDGE_SUSPENSIONBRIDGE_TOWER_SOUTH_CS_029, material=CONCRETE, section=BOX

 ***WARNING: ONE OR MORE THICKNESS OF THE BOX SECTION IS GREATER THAN 0.1 OF 
             THE CROSS SECTION DIMENSION. THE TORSIONAL RIGIDITY MAY NOT BE 
             EVALUATED ACCURATELY SINCE THE CALCULATION IS BASED ON THE 
             ASSUMPTION THAT THE WALL THICKNESS IS MUCH SMALL IN COMPARISON TO 
             THE CROSS SECTION DIMENSION
  *beamsection, elset=ASSEMBLYSUSPENSIONBRIDGE_SUSPENSIONBRIDGE_TOWER_NORTH_CS_029, material=CONCRETE, section=BOX

 ***WARNING: ONE OR MORE THICKNESS OF THE BOX SECTION IS GREATER THAN 0.1 OF 
             THE CROSS SECTION DIMENSION. THE TORSIONAL RIGIDITY MAY NOT BE 
             EVALUATED ACCURATELY SINCE THE CALCULATION IS BASED ON THE 
             ASSUMPTION THAT THE WALL THICKNESS IS MUCH SMALL IN COMPARISON TO 
             THE CROSS SECTION DIMENSION
  *beamsection, elset=ASSEMBLYSUSPENSIONBRIDGE_SUSPENSIONBRIDGE_TOWER_SOUTH_CS_030, material=CONCRETE, section=BOX

 ***WARNING: ONE OR MORE THICKNESS OF THE BOX SECTION IS GREATER THAN 0.1 OF 
             THE CROSS SECTION DIMENSION. THE TORSIONAL RIGIDITY MAY NOT BE 
             EVALUATED ACCURATELY SINCE THE CALCULATION IS BASED ON THE 
             ASSUMPTION THAT THE WALL THICKNESS IS MUCH SMALL IN COMPARISON TO 
             THE CROSS SECTION DIMENSION
  *beamsection, elset=ASSEMBLYSUSPENSIONBRIDGE_SUSPENSIONBRIDGE_TOWER_NORTH_CS_030, material=CONCRETE, section=BOX

 ***WARNING: ONE OR MORE THICKNESS OF THE BOX SECTION IS GREATER THAN 0.1 OF 
             THE CROSS SECTION DIMENSION. THE TORSIONAL RIGIDITY MAY NOT BE 
             EVALUATED ACCURATELY SINCE THE CALCULATION IS BASED ON THE 
             ASSUMPTION THAT THE WALL THICKNESS IS MUCH SMALL IN COMPARISON TO 
             THE CROSS SECTION DIMENSION
  *beamsection, elset=ASSEMBLYSUSPENSIONBRIDGE_SUSPENSIONBRIDGE_TOWER_SOUTH_CS_031, material=CONCRETE, section=BOX

 ***WARNING: ONE OR MORE THICKNESS OF THE BOX SECTION IS GREATER THAN 0.1 OF 
             THE CROSS SECTION DIMENSION. THE TORSIONAL RIGIDITY MAY NOT BE 
             EVALUATED ACCURATELY SINCE THE CALCULATION IS BASED ON THE 
             ASSUMPTION THAT THE WALL THICKNESS IS MUCH SMALL IN COMPARISON TO 
             THE CROSS SECTION DIMENSION
  *beamsection, elset=ASSEMBLYSUSPENSIONBRIDGE_SUSPENSIONBRIDGE_TOWER_NORTH_CS_031, material=CONCRETE, section=BOX

 ***WARNING: ONE OR MORE THICKNESS OF THE BOX SECTION IS GREATER THAN 0.1 OF 
             THE CROSS SECTION DIMENSION. THE TORSIONAL RIGIDITY MAY NOT BE 
             EVALUATED ACCURATELY SINCE THE CALCULATION IS BASED ON THE 
             ASSUMPTION THAT THE WALL THICKNESS IS MUCH SMALL IN COMPARISON TO 
             THE CROSS SECTION DIMENSION
  *beamsection, elset=ASSEMBLYSUSPENSIONBRIDGE_SUSPENSIONBRIDGE_TOWER_SOUTH_CS_032, material=CONCRETE, section=BOX

 ***WARNING: ONE OR MORE THICKNESS OF THE BOX SECTION IS GREATER THAN 0.1 OF 
             THE CROSS SECTION DIMENSION. THE TORSIONAL RIGIDITY MAY NOT BE 
             EVALUATED ACCURATELY SINCE THE CALCULATION IS BASED ON THE 
             ASSUMPTION THAT THE WALL THICKNESS IS MUCH SMALL IN COMPARISON TO 
             THE CROSS SECTION DIMENSION
  *beamsection, elset=ASSEMBLYSUSPENSIONBRIDGE_SUSPENSIONBRIDGE_TOWER_NORTH_CS_032, material=CONCRETE, section=BOX

 ***WARNING: ONE OR MORE THICKNESS OF THE BOX SECTION IS GREATER THAN 0.1 OF 
             THE CROSS SECTION DIMENSION. THE TORSIONAL RIGIDITY MAY NOT BE 
             EVALUATED ACCURATELY SINCE THE CALCULATION IS BASED ON THE 
             ASSUMPTION THAT THE WALL THICKNESS IS MUCH SMALL IN COMPARISON TO 
             THE CROSS SECTION DIMENSION
  *beamsection, elset=ASSEMBLYSUSPENSIONBRIDGE_SUSPENSIONBRIDGE_TOWER_SOUTH_CS_033, material=CONCRETE, section=BOX

 ***WARNING: ONE OR MORE THICKNESS OF THE BOX SECTION IS GREATER THAN 0.1 OF 
             THE CROSS SECTION DIMENSION. THE TORSIONAL RIGIDITY MAY NOT BE 
             EVALUATED ACCURATELY SINCE THE CALCULATION IS BASED ON THE 
             ASSUMPTION THAT THE WALL THICKNESS IS MUCH SMALL IN COMPARISON TO 
             THE CROSS SECTION DIMENSION
  *beamsection, elset=ASSEMBLYSUSPENSIONBRIDGE_SUSPENSIONBRIDGE_TOWER_NORTH_CS_033, material=CONCRETE, section=BOX

 ***WARNING: ONE OR MORE THICKNESS OF THE BOX SECTION IS GREATER THAN 0.1 OF 
             THE CROSS SECTION DIMENSION. THE TORSIONAL RIGIDITY MAY NOT BE 
             EVALUATED ACCURATELY SINCE THE CALCULATION IS BASED ON THE 
             ASSUMPTION THAT THE WALL THICKNESS IS MUCH SMALL IN COMPARISON TO 
             THE CROSS SECTION DIMENSION
  *beamsection, elset=ASSEMBLYSUSPENSIONBRIDGE_SUSPENSIONBRIDGE_TOWER_SOUTH_CS_034, material=CONCRETE, section=BOX

 ***WARNING: ONE OR MORE THICKNESS OF THE BOX SECTION IS GREATER THAN 0.1 OF 
             THE CROSS SECTION DIMENSION. THE TORSIONAL RIGIDITY MAY NOT BE 
             EVALUATED ACCURATELY SINCE THE CALCULATION IS BASED ON THE 
             ASSUMPTION THAT THE WALL THICKNESS IS MUCH SMALL IN COMPARISON TO 
             THE CROSS SECTION DIMENSION
  *beamsection, elset=ASSEMBLYSUSPENSIONBRIDGE_SUSPENSIONBRIDGE_TOWER_NORTH_CS_034, material=CONCRETE, section=BOX

 ***WARNING: ONE OR MORE THICKNESS OF THE BOX SECTION IS GREATER THAN 0.1 OF 
             THE CROSS SECTION DIMENSION. THE TORSIONAL RIGIDITY MAY NOT BE 
             EVALUATED ACCURATELY SINCE THE CALCULATION IS BASED ON THE 
             ASSUMPTION THAT THE WALL THICKNESS IS MUCH SMALL IN COMPARISON TO 
             THE CROSS SECTION DIMENSION
  *beamsection, elset=ASSEMBLYSUSPENSIONBRIDGE_SUSPENSIONBRIDGE_TOWER_SOUTH_CS_035, material=CONCRETE, section=BOX

 ***WARNING: ONE OR MORE THICKNESS OF THE BOX SECTION IS GREATER THAN 0.1 OF 
             THE CROSS SECTION DIMENSION. THE TORSIONAL RIGIDITY MAY NOT BE 
             EVALUATED ACCURATELY SINCE THE CALCULATION IS BASED ON THE 
             ASSUMPTION THAT THE WALL THICKNESS IS MUCH SMALL IN COMPARISON TO 
             THE CROSS SECTION DIMENSION
  *beamsection, elset=ASSEMBLYSUSPENSIONBRIDGE_SUSPENSIONBRIDGE_TOWER_NORTH_CS_035, material=CONCRETE, section=BOX

 ***WARNING: ONE OR MORE THICKNESS OF THE BOX SECTION IS GREATER THAN 0.1 OF 
             THE CROSS SECTION DIMENSION. THE TORSIONAL RIGIDITY MAY NOT BE 
             EVALUATED ACCURATELY SINCE THE CALCULATION IS BASED ON THE 
             ASSUMPTION THAT THE WALL THICKNESS IS MUCH SMALL IN COMPARISON TO 
             THE CROSS SECTION DIMENSION
  *beamsection, elset=ASSEMBLYSUSPENSIONBRIDGE_SUSPENSIONBRIDGE_TOWER_SOUTH_CS_036, material=CONCRETE, section=BOX

 ***WARNING: ONE OR MORE THICKNESS OF THE BOX SECTION IS GREATER THAN 0.1 OF 
             THE CROSS SECTION DIMENSION. THE TORSIONAL RIGIDITY MAY NOT BE 
             EVALUATED ACCURATELY SINCE THE CALCULATION IS BASED ON THE 
             ASSUMPTION THAT THE WALL THICKNESS IS MUCH SMALL IN COMPARISON TO 
             THE CROSS SECTION DIMENSION
  *beamsection, elset=ASSEMBLYSUSPENSIONBRIDGE_SUSPENSIONBRIDGE_TOWER_NORTH_CS_036, material=CONCRETE, section=BOX

 ***WARNING: ONE OR MORE THICKNESS OF THE BOX SECTION IS GREATER THAN 0.1 OF 
             THE CROSS SECTION DIMENSION. THE TORSIONAL RIGIDITY MAY NOT BE 
             EVALUATED ACCURATELY SINCE THE CALCULATION IS BASED ON THE 
             ASSUMPTION THAT THE WALL THICKNESS IS MUCH SMALL IN COMPARISON TO 
             THE CROSS SECTION DIMENSION
  *beamsection, elset=ASSEMBLYSUSPENSIONBRIDGE_SUSPENSIONBRIDGE_TOWER_SOUTH_CS_037, material=CONCRETE, section=BOX

 ***WARNING: ONE OR MORE THICKNESS OF THE BOX SECTION IS GREATER THAN 0.1 OF 
             THE CROSS SECTION DIMENSION. THE TORSIONAL RIGIDITY MAY NOT BE 
             EVALUATED ACCURATELY SINCE THE CALCULATION IS BASED ON THE 
             ASSUMPTION THAT THE WALL THICKNESS IS MUCH SMALL IN COMPARISON TO 
             THE CROSS SECTION DIMENSION
  *beamsection, elset=ASSEMBLYSUSPENSIONBRIDGE_SUSPENSIONBRIDGE_TOWER_NORTH_CS_037, material=CONCRETE, section=BOX

 ***WARNING: ONE OR MORE THICKNESS OF THE BOX SECTION IS GREATER THAN 0.1 OF 
             THE CROSS SECTION DIMENSION. THE TORSIONAL RIGIDITY MAY NOT BE 
             EVALUATED ACCURATELY SINCE THE CALCULATION IS BASED ON THE 
             ASSUMPTION THAT THE WALL THICKNESS IS MUCH SMALL IN COMPARISON TO 
             THE CROSS SECTION DIMENSION
  *beamsection, elset=ASSEMBLYSUSPENSIONBRIDGE_SUSPENSIONBRIDGE_TOWER_SOUTH_CS_038, material=CONCRETE, section=BOX

 ***WARNING: ONE OR MORE THICKNESS OF THE BOX SECTION IS GREATER THAN 0.1 OF 
             THE CROSS SECTION DIMENSION. THE TORSIONAL RIGIDITY MAY NOT BE 
             EVALUATED ACCURATELY SINCE THE CALCULATION IS BASED ON THE 
             ASSUMPTION THAT THE WALL THICKNESS IS MUCH SMALL IN COMPARISON TO 
             THE CROSS SECTION DIMENSION
  *beamsection, elset=ASSEMBLYSUSPENSIONBRIDGE_SUSPENSIONBRIDGE_TOWER_NORTH_CS_038, material=CONCRETE, section=BOX

 ***WARNING: ONE OR MORE THICKNESS OF THE BOX SECTION IS GREATER THAN 0.1 OF 
             THE CROSS SECTION DIMENSION. THE TORSIONAL RIGIDITY MAY NOT BE 
             EVALUATED ACCURATELY SINCE THE CALCULATION IS BASED ON THE 
             ASSUMPTION THAT THE WALL THICKNESS IS MUCH SMALL IN COMPARISON TO 
             THE CROSS SECTION DIMENSION
  *beamsection, elset=ASSEMBLYSUSPENSIONBRIDGE_SUSPENSIONBRIDGE_TOWER_SOUTH_CS_039, material=CONCRETE, section=BOX

 ***WARNING: ONE OR MORE THICKNESS OF THE BOX SECTION IS GREATER THAN 0.1 OF 
             THE CROSS SECTION DIMENSION. THE TORSIONAL RIGIDITY MAY NOT BE 
             EVALUATED ACCURATELY SINCE THE CALCULATION IS BASED ON THE 
             ASSUMPTION THAT THE WALL THICKNESS IS MUCH SMALL IN COMPARISON TO 
             THE CROSS SECTION DIMENSION
  *beamsection, elset=ASSEMBLYSUSPENSIONBRIDGE_SUSPENSIONBRIDGE_TOWER_NORTH_CS_039, material=CONCRETE, section=BOX

 ***WARNING: ONE OR MORE THICKNESS OF THE BOX SECTION IS GREATER THAN 0.1 OF 
             THE CROSS SECTION DIMENSION. THE TORSIONAL RIGIDITY MAY NOT BE 
             EVALUATED ACCURATELY SINCE THE CALCULATION IS BASED ON THE 
             ASSUMPTION THAT THE WALL THICKNESS IS MUCH SMALL IN COMPARISON TO 
             THE CROSS SECTION DIMENSION
  *beamsection, elset=ASSEMBLYSUSPENSIONBRIDGE_SUSPENSIONBRIDGE_TOWER_SOUTH_CS_040, material=CONCRETE, section=BOX

 ***WARNING: ONE OR MORE THICKNESS OF THE BOX SECTION IS GREATER THAN 0.1 OF 
             THE CROSS SECTION DIMENSION. THE TORSIONAL RIGIDITY MAY NOT BE 
             EVALUATED ACCURATELY SINCE THE CALCULATION IS BASED ON THE 
             ASSUMPTION THAT THE WALL THICKNESS IS MUCH SMALL IN COMPARISON TO 
             THE CROSS SECTION DIMENSION
  *beamsection, elset=ASSEMBLYSUSPENSIONBRIDGE_SUSPENSIONBRIDGE_TOWER_NORTH_CS_040, material=CONCRETE, section=BOX

 ***WARNING: ONE OR MORE THICKNESS OF THE BOX SECTION IS GREATER THAN 0.1 OF 
             THE CROSS SECTION DIMENSION. THE TORSIONAL RIGIDITY MAY NOT BE 
             EVALUATED ACCURATELY SINCE THE CALCULATION IS BASED ON THE 
             ASSUMPTION THAT THE WALL THICKNESS IS MUCH SMALL IN COMPARISON TO 
             THE CROSS SECTION DIMENSION
  *beamsection, elset=ASSEMBLYSUSPENSIONBRIDGE_SUSPENSIONBRIDGE_TOWER_SOUTH_CS_041, material=CONCRETE, section=BOX

 ***WARNING: ONE OR MORE THICKNESS OF THE BOX SECTION IS GREATER THAN 0.1 OF 
             THE CROSS SECTION DIMENSION. THE TORSIONAL RIGIDITY MAY NOT BE 
             EVALUATED ACCURATELY SINCE THE CALCULATION IS BASED ON THE 
             ASSUMPTION THAT THE WALL THICKNESS IS MUCH SMALL IN COMPARISON TO 
             THE CROSS SECTION DIMENSION
  *beamsection, elset=ASSEMBLYSUSPENSIONBRIDGE_SUSPENSIONBRIDGE_TOWER_NORTH_CS_041, material=CONCRETE, section=BOX

 ***WARNING: ONE OR MORE THICKNESS OF THE BOX SECTION IS GREATER THAN 0.1 OF 
             THE CROSS SECTION DIMENSION. THE TORSIONAL RIGIDITY MAY NOT BE 
             EVALUATED ACCURATELY SINCE THE CALCULATION IS BASED ON THE 
             ASSUMPTION THAT THE WALL THICKNESS IS MUCH SMALL IN COMPARISON TO 
             THE CROSS SECTION DIMENSION
  *beamsection, elset=ASSEMBLYSUSPENSIONBRIDGE_SUSPENSIONBRIDGE_TOWER_SOUTH_CS_042, material=CONCRETE, section=BOX

 ***WARNING: ONE OR MORE THICKNESS OF THE BOX SECTION IS GREATER THAN 0.1 OF 
             THE CROSS SECTION DIMENSION. THE TORSIONAL RIGIDITY MAY NOT BE 
             EVALUATED ACCURATELY SINCE THE CALCULATION IS BASED ON THE 
             ASSUMPTION THAT THE WALL THICKNESS IS MUCH SMALL IN COMPARISON TO 
             THE CROSS SECTION DIMENSION
  *beamsection, elset=ASSEMBLYSUSPENSIONBRIDGE_SUSPENSIONBRIDGE_TOWER_NORTH_CS_042, material=CONCRETE, section=BOX

 ***WARNING: ONE OR MORE THICKNESS OF THE BOX SECTION IS GREATER THAN 0.1 OF 
             THE CROSS SECTION DIMENSION. THE TORSIONAL RIGIDITY MAY NOT BE 
             EVALUATED ACCURATELY SINCE THE CALCULATION IS BASED ON THE 
             ASSUMPTION THAT THE WALL THICKNESS IS MUCH SMALL IN COMPARISON TO 
             THE CROSS SECTION DIMENSION
  *beamsection, elset=ASSEMBLYSUSPENSIONBRIDGE_SUSPENSIONBRIDGE_TOWER_SOUTH_CS_043, material=CONCRETE, section=BOX

 ***WARNING: ONE OR MORE THICKNESS OF THE BOX SECTION IS GREATER THAN 0.1 OF 
             THE CROSS SECTION DIMENSION. THE TORSIONAL RIGIDITY MAY NOT BE 
             EVALUATED ACCURATELY SINCE THE CALCULATION IS BASED ON THE 
             ASSUMPTION THAT THE WALL THICKNESS IS MUCH SMALL IN COMPARISON TO 
             THE CROSS SECTION DIMENSION
  *beamsection, elset=ASSEMBLYSUSPENSIONBRIDGE_SUSPENSIONBRIDGE_TOWER_NORTH_CS_043, material=CONCRETE, section=BOX

 ***WARNING: ONE OR MORE THICKNESS OF THE BOX SECTION IS GREATER THAN 0.1 OF 
             THE CROSS SECTION DIMENSION. THE TORSIONAL RIGIDITY MAY NOT BE 
             EVALUATED ACCURATELY SINCE THE CALCULATION IS BASED ON THE 
             ASSUMPTION THAT THE WALL THICKNESS IS MUCH SMALL IN COMPARISON TO 
             THE CROSS SECTION DIMENSION
  *beamsection, elset=ASSEMBLYSUSPENSIONBRIDGE_SUSPENSIONBRIDGE_TOWER_SOUTH_CS_044, material=CONCRETE, section=BOX

 ***WARNING: ONE OR MORE THICKNESS OF THE BOX SECTION IS GREATER THAN 0.1 OF 
             THE CROSS SECTION DIMENSION. THE TORSIONAL RIGIDITY MAY NOT BE 
             EVALUATED ACCURATELY SINCE THE CALCULATION IS BASED ON THE 
             ASSUMPTION THAT THE WALL THICKNESS IS MUCH SMALL IN COMPARISON TO 
             THE CROSS SECTION DIMENSION
  *beamsection, elset=ASSEMBLYSUSPENSIONBRIDGE_SUSPENSIONBRIDGE_TOWER_NORTH_CS_044, material=CONCRETE, section=BOX

 ***WARNING: ONE OR MORE THICKNESS OF THE BOX SECTION IS GREATER THAN 0.1 OF 
             THE CROSS SECTION DIMENSION. THE TORSIONAL RIGIDITY MAY NOT BE 
             EVALUATED ACCURATELY SINCE THE CALCULATION IS BASED ON THE 
             ASSUMPTION THAT THE WALL THICKNESS IS MUCH SMALL IN COMPARISON TO 
             THE CROSS SECTION DIMENSION
  *beamsection, elset=ASSEMBLYSUSPENSIONBRIDGE_SUSPENSIONBRIDGE_TOWER_SOUTH_CS_045, material=CONCRETE, section=BOX

 ***WARNING: ONE OR MORE THICKNESS OF THE BOX SECTION IS GREATER THAN 0.1 OF 
             THE CROSS SECTION DIMENSION. THE TORSIONAL RIGIDITY MAY NOT BE 
             EVALUATED ACCURATELY SINCE THE CALCULATION IS BASED ON THE 
             ASSUMPTION THAT THE WALL THICKNESS IS MUCH SMALL IN COMPARISON TO 
             THE CROSS SECTION DIMENSION
  *beamsection, elset=ASSEMBLYSUSPENSIONBRIDGE_SUSPENSIONBRIDGE_TOWER_NORTH_CS_045, material=CONCRETE, section=BOX

 ***WARNING: ONE OR MORE THICKNESS OF THE BOX SECTION IS GREATER THAN 0.1 OF 
             THE CROSS SECTION DIMENSION. THE TORSIONAL RIGIDITY MAY NOT BE 
             EVALUATED ACCURATELY SINCE THE CALCULATION IS BASED ON THE 
             ASSUMPTION THAT THE WALL THICKNESS IS MUCH SMALL IN COMPARISON TO 
             THE CROSS SECTION DIMENSION
  *beamsection, elset=ASSEMBLYSUSPENSIONBRIDGE_SUSPENSIONBRIDGE_TOWER_SOUTH_CS_046, material=CONCRETE, section=BOX

 ***WARNING: ONE OR MORE THICKNESS OF THE BOX SECTION IS GREATER THAN 0.1 OF 
             THE CROSS SECTION DIMENSION. THE TORSIONAL RIGIDITY MAY NOT BE 
             EVALUATED ACCURATELY SINCE THE CALCULATION IS BASED ON THE 
             ASSUMPTION THAT THE WALL THICKNESS IS MUCH SMALL IN COMPARISON TO 
             THE CROSS SECTION DIMENSION
  *beamsection, elset=ASSEMBLYSUSPENSIONBRIDGE_SUSPENSIONBRIDGE_TOWER_NORTH_CS_046, material=CONCRETE, section=BOX

 ***WARNING: ONE OR MORE THICKNESS OF THE BOX SECTION IS GREATER THAN 0.1 OF 
             THE CROSS SECTION DIMENSION. THE TORSIONAL RIGIDITY MAY NOT BE 
             EVALUATED ACCURATELY SINCE THE CALCULATION IS BASED ON THE 
             ASSUMPTION THAT THE WALL THICKNESS IS MUCH SMALL IN COMPARISON TO 
             THE CROSS SECTION DIMENSION
  *beamsection, elset=ASSEMBLYSUSPENSIONBRIDGE_SUSPENSIONBRIDGE_TOWER_SOUTH_CS_047, material=CONCRETE, section=BOX

 ***WARNING: ONE OR MORE THICKNESS OF THE BOX SECTION IS GREATER THAN 0.1 OF 
             THE CROSS SECTION DIMENSION. THE TORSIONAL RIGIDITY MAY NOT BE 
             EVALUATED ACCURATELY SINCE THE CALCULATION IS BASED ON THE 
             ASSUMPTION THAT THE WALL THICKNESS IS MUCH SMALL IN COMPARISON TO 
             THE CROSS SECTION DIMENSION
  *beamsection, elset=ASSEMBLYSUSPENSIONBRIDGE_SUSPENSIONBRIDGE_TOWER_NORTH_CS_047, material=CONCRETE, section=BOX

 ***WARNING: ONE OR MORE THICKNESS OF THE BOX SECTION IS GREATER THAN 0.1 OF 
             THE CROSS SECTION DIMENSION. THE TORSIONAL RIGIDITY MAY NOT BE 
             EVALUATED ACCURATELY SINCE THE CALCULATION IS BASED ON THE 
             ASSUMPTION THAT THE WALL THICKNESS IS MUCH SMALL IN COMPARISON TO 
             THE CROSS SECTION DIMENSION
  *beamsection, elset=ASSEMBLYSUSPENSIONBRIDGE_SUSPENSIONBRIDGE_TOWER_SOUTH_CS_048, material=CONCRETE, section=BOX

 ***WARNING: ONE OR MORE THICKNESS OF THE BOX SECTION IS GREATER THAN 0.1 OF 
             THE CROSS SECTION DIMENSION. THE TORSIONAL RIGIDITY MAY NOT BE 
             EVALUATED ACCURATELY SINCE THE CALCULATION IS BASED ON THE 
             ASSUMPTION THAT THE WALL THICKNESS IS MUCH SMALL IN COMPARISON TO 
             THE CROSS SECTION DIMENSION
  *beamsection, elset=ASSEMBLYSUSPENSIONBRIDGE_SUSPENSIONBRIDGE_TOWER_NORTH_CS_048, material=CONCRETE, section=BOX

 ***WARNING: ONE OR MORE THICKNESS OF THE BOX SECTION IS GREATER THAN 0.1 OF 
             THE CROSS SECTION DIMENSION. THE TORSIONAL RIGIDITY MAY NOT BE 
             EVALUATED ACCURATELY SINCE THE CALCULATION IS BASED ON THE 
             ASSUMPTION THAT THE WALL THICKNESS IS MUCH SMALL IN COMPARISON TO 
             THE CROSS SECTION DIMENSION
  *beamsection, elset=ASSEMBLYSUSPENSIONBRIDGE_SUSPENSIONBRIDGE_TOWER_SOUTH_CS_049, material=CONCRETE, section=BOX

 ***WARNING: ONE OR MORE THICKNESS OF THE BOX SECTION IS GREATER THAN 0.1 OF 
             THE CROSS SECTION DIMENSION. THE TORSIONAL RIGIDITY MAY NOT BE 
             EVALUATED ACCURATELY SINCE THE CALCULATION IS BASED ON THE 
             ASSUMPTION THAT THE WALL THICKNESS IS MUCH SMALL IN COMPARISON TO 
             THE CROSS SECTION DIMENSION
  *beamsection, elset=ASSEMBLYSUSPENSIONBRIDGE_SUSPENSIONBRIDGE_TOWER_NORTH_CS_049, material=CONCRETE, section=BOX

 ***WARNING: ONE OR MORE THICKNESS OF THE BOX SECTION IS GREATER THAN 0.1 OF 
             THE CROSS SECTION DIMENSION. THE TORSIONAL RIGIDITY MAY NOT BE 
             EVALUATED ACCURATELY SINCE THE CALCULATION IS BASED ON THE 
             ASSUMPTION THAT THE WALL THICKNESS IS MUCH SMALL IN COMPARISON TO 
             THE CROSS SECTION DIMENSION
  *beamsection, elset=ASSEMBLYSUSPENSIONBRIDGE_SUSPENSIONBRIDGE_TOWER_SOUTH_CS_050, material=CONCRETE, section=BOX

 ***WARNING: ONE OR MORE THICKNESS OF THE BOX SECTION IS GREATER THAN 0.1 OF 
             THE CROSS SECTION DIMENSION. THE TORSIONAL RIGIDITY MAY NOT BE 
             EVALUATED ACCURATELY SINCE THE CALCULATION IS BASED ON THE 
             ASSUMPTION THAT THE WALL THICKNESS IS MUCH SMALL IN COMPARISON TO 
             THE CROSS SECTION DIMENSION
  *beamsection, elset=ASSEMBLYSUSPENSIONBRIDGE_SUSPENSIONBRIDGE_TOWER_NORTH_CS_050, material=CONCRETE, section=BOX

 ***WARNING: ONE OR MORE THICKNESS OF THE BOX SECTION IS GREATER THAN 0.1 OF 
             THE CROSS SECTION DIMENSION. THE TORSIONAL RIGIDITY MAY NOT BE 
             EVALUATED ACCURATELY SINCE THE CALCULATION IS BASED ON THE 
             ASSUMPTION THAT THE WALL THICKNESS IS MUCH SMALL IN COMPARISON TO 
             THE CROSS SECTION DIMENSION
  *beamsection, elset=ASSEMBLYSUSPENSIONBRIDGE_SUSPENSIONBRIDGE_TOWER_SOUTH_CS_051, material=CONCRETE, section=BOX

 ***WARNING: ONE OR MORE THICKNESS OF THE BOX SECTION IS GREATER THAN 0.1 OF 
             THE CROSS SECTION DIMENSION. THE TORSIONAL RIGIDITY MAY NOT BE 
             EVALUATED ACCURATELY SINCE THE CALCULATION IS BASED ON THE 
             ASSUMPTION THAT THE WALL THICKNESS IS MUCH SMALL IN COMPARISON TO 
             THE CROSS SECTION DIMENSION
  *beamsection, elset=ASSEMBLYSUSPENSIONBRIDGE_SUSPENSIONBRIDGE_TOWER_NORTH_CS_051, material=CONCRETE, section=BOX

 ***WARNING: ONE OR MORE THICKNESS OF THE BOX SECTION IS GREATER THAN 0.1 OF 
             THE CROSS SECTION DIMENSION. THE TORSIONAL RIGIDITY MAY NOT BE 
             EVALUATED ACCURATELY SINCE THE CALCULATION IS BASED ON THE 
             ASSUMPTION THAT THE WALL THICKNESS IS MUCH SMALL IN COMPARISON TO 
             THE CROSS SECTION DIMENSION
  *beamsection, elset=ASSEMBLYSUSPENSIONBRIDGE_SUSPENSIONBRIDGE_TOWER_SOUTH_CS_052, material=CONCRETE, section=BOX

[...]
      11     -3.89481E-13    1.59946E-09    3.22600E-03   -5.17911E-07   -1.50608E-09    5.16013E-09
      12     -5.32049E-04   -2.76787E-12   -3.07229E-12    8.78458E-10    -1.4847       -2.38210E-06
      13      3.40467E-13     1.7286       -8.05588E-09    -536.04        5.39848E-10   -1.04021E-07
      14      1.60194E-12   -0.10009       -1.36114E-07    -3.7229        1.79801E-09   -1.16140E-07
      15     -1.47440E-10   -1.15690E-08    0.49305       -2.81251E-06    3.83169E-08    2.94539E-09
      16     -3.14658E-08   -4.41994E-11    9.59559E-14    1.15177E-08   -8.21163E-06    -1445.9    
      17     -5.95541E-14    -1.5074        4.12469E-11     415.95       -3.81618E-11    7.04129E-08
      18      2.28821E-07   -1.70939E-11    1.22355E-13   -9.31378E-09    1.16045E-04    -792.12    
      19     -0.17976        1.61930E-13   -3.54783E-11    1.88468E-13    -360.67       -8.78996E-04
      20      1.86818E-07   -1.27388E-10    1.27362E-13    8.45159E-09   -4.89105E-04     263.74    
      21       1.3985       -1.13431E-13   -1.41850E-11    3.85725E-11     342.07       -1.68917E-05
      22      3.35167E-11    1.14366E-10    0.11051        1.79122E-07    8.37720E-10    2.38955E-10
      23      1.36063E-10   -1.41123E-08    0.27548        7.35208E-07    1.84492E-07   -1.50066E-11
      24     -7.42668E-14   -9.98162E-02    4.91305E-10     9.1716       -1.21392E-09    2.75390E-07
      25     -4.94745E-14   -0.21306       -3.15304E-08     12.019        1.86814E-09   -2.76548E-07
      26      1.84944E-02    1.09954E-12    3.04687E-11   -6.09901E-11     271.92        1.67933E-05
      27     -2.27001E-13    6.43549E-10    6.10495E-05   -1.47138E-08   -3.34736E-09    1.82503E-09
      28      7.41778E-05    3.08482E-13   -5.49825E-13   -8.31552E-11    0.11597       -7.40791E-08
      29      4.91259E-08   -1.19227E-11   -2.13492E-13   -2.82939E-09   -8.37358E-06     661.62    
      30      2.60250E-14    0.31482       -4.97622E-09    -56.455       -3.07556E-12   -7.87846E-08
      31     -2.22272E-10   -6.64993E-09    0.19091       -3.09928E-07   -1.09671E-07    6.20370E-10
      32      4.99044E-07    1.69165E-10    1.70116E-12   -3.55594E-09    4.98074E-04    -43.302    
      33     -6.44975E-03   -3.55572E-14   -1.62840E-10   -2.60215E-10    -24.778       -1.63272E-06
      34      3.12155E-10   -5.87132E-11   -3.67339E-03    4.10379E-08    1.33040E-06    2.03489E-10
      35      9.25045E-02    1.17982E-12   -1.24253E-10    2.29126E-10    -1316.4       -3.92114E-05
      36     -2.25825E-07   -5.32480E-11    9.54387E-10    1.83028E-08    4.28225E-04     47.820    
      37     -3.20621E-11   -2.12781E-09     1.0765        4.99006E-08    1.19636E-07   -4.18061E-08
      38     -1.02971E-12    9.37440E-02    1.61755E-08    -2.8701        2.03362E-08    1.90187E-08
      39     -3.90338E-08   -8.89856E-11   -5.26757E-11    2.28034E-08    6.62393E-05     71.328    
      40     -1.43063E-12   -0.11852        3.03010E-10     50.273        1.20218E-08   -3.99845E-08
      41      0.23244        8.26845E-13    6.54524E-11   -9.55453E-12     164.69        1.20563E-05
      42      7.14816E-08    1.26213E-10    1.48688E-12   -5.65724E-08   -2.14365E-05    -84.904    
      43     -2.71130E-12   -9.85257E-03    1.97529E-07     4.7095       -2.22375E-09   -1.38175E-06
      44     -5.15631E-09    4.66619E-09    0.16812       -4.52937E-06    1.18258E-06   -3.76991E-09
      45      0.86970       -1.18185E-11    4.15050E-10   -2.02513E-10    -198.89        2.85723E-05
      46     -5.34590E-11   -5.60213E-11   -4.07116E-04   -3.33210E-08   -3.59061E-07   -1.20459E-07
      47     -1.49984E-03   -1.39152E-10   -5.75612E-11   -6.33662E-09     1.2714       -1.32266E-07
      48      9.05992E-02   -2.40612E-10   -7.00773E-11   -6.51073E-09     188.87        1.36412E-04
      49      9.81511E-07    7.56242E-10    3.05423E-10   -3.16018E-09   -5.07324E-06    -139.64    
      50      1.70099E-10   -0.24869       -2.14958E-09     15.608       -2.64812E-07   -1.79792E-06
      51      8.03750E-07   -1.16819E-09   -5.62162E-10   -1.82060E-08   -6.62505E-05     241.86    
      52     -4.00827E-10   -1.37959E-08    0.13769        1.24811E-06   -2.44041E-08    1.07626E-05
      53     -1.27773E-09    0.14091        4.00912E-10    -7.1475       -4.32381E-06   -4.99358E-06
      54      4.27906E-02   -7.55302E-13    4.63159E-11   -4.34535E-10    -182.73       -1.18984E-05
      55     -3.78762E-12   -7.15306E-03   -1.01061E-07    -2.9332        1.84274E-08    4.12075E-06
      56     -3.34964E-10   -7.81133E-09    0.11235       -2.04456E-06   -6.94981E-08    4.35248E-06
      57      3.86946E-08   -2.05548E-11    1.15556E-13    3.53875E-10   -1.79907E-05     14.565    
      58     -6.33794E-08   -2.96579E-11   -9.62549E-14   -7.59526E-10    3.07041E-05    -143.39    
      59      2.97335E-13   -9.83824E-11    7.76302E-05    8.40534E-09    7.61850E-11    1.45477E-07
      60     -4.43206E-07    2.10246E-10   -4.91668E-13   -1.71522E-08    4.27373E-04     21.821    
      61     -3.92434E-13   -3.51431E-02    6.66714E-10     3.7434       -3.05290E-11    6.56869E-06
      62      1.20165E-04   -1.25970E-10    2.07373E-14    6.36641E-09   -0.66283        1.33157E-05
      63     -1.58494E-02    5.73538E-11    4.70148E-11   -2.92197E-09    -135.48        3.75430E-05
      64     -1.44465E-13    0.30261        2.88345E-10    -3.8201       -3.20542E-11    1.09749E-05
      65     -1.43850E-10    8.23075E-09    8.68003E-02    5.59013E-06   -3.91170E-08   -1.69728E-05
      66     -1.21579E-08   -1.27308E-10   -6.79927E-14   -2.02323E-08    2.82599E-06     397.11    
      67     -1.10451E-13   -1.01838E-02    3.73887E-08    -2.7993        3.16315E-10    2.43811E-05
      68      2.51020E-02    2.49960E-10    1.04333E-11   -1.27007E-08    -109.88        5.23784E-05
      69      3.99488E-14    0.84076       -3.87219E-10    -4.4296       -1.04867E-11    1.24676E-05
      70     -1.86936E-08    6.57727E-10    2.13893E-14    2.68755E-09   -3.08934E-07    -1165.5    
      71     -3.47411E-07    8.57937E-10    1.49723E-11   -2.92599E-08    7.93714E-05     14.397    
      72      2.72558E-12   -5.12354E-08    7.25460E-02    1.06791E-06    2.29329E-09    2.49767E-05
      73      4.54845E-13   -2.78017E-09   -4.90734E-05    1.62289E-07   -2.06928E-09    1.54850E-05
      74     -3.17560E-14    0.19075        2.87099E-10    -8.7491       -1.23224E-10    4.99119E-06
      75     -2.86993E-03   -1.35090E-09    1.59707E-11    6.85144E-08     7.3654        2.20758E-05
      76      9.07501E-02   -6.67298E-09    3.65949E-11    3.38409E-07    -226.49        2.91507E-05
      77     -7.74351E-11    2.49116E-09    3.40528E-02   -1.38556E-07    1.75637E-07    1.85083E-05
      78      6.09324E-09    1.20177E-09   -3.55647E-13   -6.25030E-08   -6.27916E-06    -16.527    
      79      7.05315E-12    2.30323E-02    4.38890E-11    0.81684       -2.95306E-09   -2.29749E-06
      80     -5.64010E-12    4.88905E-09    7.75896E-04   -2.76862E-07   -2.85832E-08    4.00735E-05
      81      2.69255E-04    4.65283E-09    9.37990E-12   -2.35813E-07   -0.10368       -1.84608E-05
      82      3.31535E-08   -6.85498E-10    3.45485E-13    3.52318E-08   -3.14051E-05    -225.14    
      83      5.78685E-03   -3.01669E-09   -2.22241E-11    1.53035E-07    -94.314       -1.71085E-06
      84     -9.22461E-13   -0.22202        1.01318E-08    -8.3052        4.24094E-10   -6.34104E-06
      85     -1.15348E-08   -6.82954E-10    2.94987E-14   -2.33646E-07   -2.45484E-06     690.14    
      86     -2.54262E-11   -3.41241E-02   -2.12215E-07    -3.6805        7.73291E-09   -1.17038E-05
      87      1.55356E-09    0.49843       -2.85103E-07     14.815        2.64156E-07   -1.37090E-03
      88      4.57429E-09   -4.40792E-08   -2.13907E-04    2.92297E-06   -2.71345E-06   -5.31570E-04
      89      1.07112E-11   -0.33038        3.38831E-08    -13.762        7.39810E-10    1.83613E-06
      90     -5.04835E-10   -4.04525E-08   -6.31103E-02    4.09545E-06    2.44599E-07    8.60028E-07
      91     -0.11389       -9.81058E-10    3.50682E-11    4.99581E-08     82.978       -3.96280E-07
      92     -5.26867E-11    2.97646E-10   -3.61758E-02    3.00669E-08    5.58136E-08    1.99695E-07
      93     -5.96830E-02    1.88441E-09    5.17881E-10   -1.01356E-07     101.53        5.09287E-04
      94      3.97375E-06   -2.10726E-09    2.73500E-11    1.09507E-07   -7.45012E-03     6.3503    
      95     -1.23990E-08   -1.86329E-09   -2.82441E-10    9.13964E-08    6.18343E-06    -16.642    
      96      9.70683E-11   -9.61914E-10    3.71211E-04    4.10418E-08    1.49708E-07   -2.79185E-07
      97     -4.32724E-04   -1.55643E-09   -3.77787E-10    1.08395E-07    0.57362       -6.01182E-07
      98     -5.59289E-09   -4.14480E-08    5.53325E-02    4.47725E-06    6.70703E-07    1.22325E-06
      99      2.88154E-09   -0.15638       -5.26643E-09     2.4581        9.13539E-07   -1.93178E-06
     100      1.70895E-08   -1.45779E-02   -2.70640E-08    -1.6690       -2.11460E-06   -9.65435E-07


                    E F F E C T I V E   M A S S

 MODE NO    X-COMPONENT    Y-COMPONENT    Z-COMPONENT    X-ROTATION     Y-ROTATION     Z-ROTATION 

       1      5.17257E-20    7.25450E+07    1.56624E-09    8.17204E+11    1.91791E-12    4.18059E-09
       2      1.51433E-07    2.43057E-15    1.50038E-18    2.96527E-10    0.59257        3.92560E+13
       3      4.25287E+06    1.68181E-17    2.84230E-09    2.19884E-13    3.09286E+13     1.0308    
       4      1.16248E-09    3.69734E-12    1.04075E+07    5.15219E-08    8.54248E-03    2.14339E-11
       5      1.32895E-17    3.52445E+06    3.28075E-09    3.23508E+09    4.68010E-10    8.14413E-09
       6      1.26056E-14    1.44490E-07    5.32829E+07    9.35693E-03    1.32402E-07    2.70238E-11
       7      4.59090E-16    7.74601E+05    1.10062E-05    5.59936E+10    6.54220E-09    6.12931E-11
       8      2.96905E+05    2.72627E-16    2.72742E-13    3.96704E-11    9.24537E+12    7.95168E-03
       9      4.69889E-08    1.20390E-12    5.85282E-16    5.43018E-08    2.55856E-02    1.29720E+13
      10      8.30110E-08    1.06456E-13    6.88726E-16    3.76409E-10    2.68221E-02    4.06900E+13
      11      1.87450E-18    3.16123E-11     128.60        3.31453E-06    2.80289E-11    3.29029E-10
      12       3.4907        9.44706E-17    1.16394E-16    9.51587E-12    2.71826E+07    6.99721E-05
      13      1.99606E-18    5.14555E+07    1.11751E-09    4.94789E+12    5.01844E-12    1.86323E-07
      14      6.68529E-17    2.60970E+05    4.82651E-07    3.61077E+08    8.42196E-11    3.51389E-07
      15      7.53803E-13    4.64107E-09    8.42970E+06    2.74294E-04    5.09108E-08    3.00826E-10
      16      9.42209E-08    1.85910E-13    8.76219E-19    1.26240E-08    6.41695E-03    1.98963E+14
      17      1.46536E-19    9.38831E+07    7.02917E-14    7.14821E+12    6.01699E-14    2.04845E-07
      18      3.30189E-06    1.84270E-14    9.44085E-19    5.47044E-09    0.84923        3.95689E+13
      19      1.21495E+06    9.85940E-19    4.73280E-14    1.33557E-18    4.89108E+12     29.051    
      20      1.93729E-06    9.00779E-13    9.00401E-19    3.96494E-09     13.279        3.86109E+12
      21      1.59634E+08    1.05013E-18    1.64226E-14    1.21433E-13    9.55021E+12    2.32879E-02
      22      9.07146E-14    1.05621E-12    9.86109E+05    2.59092E-06    5.66700E-11    4.61091E-12
      23      6.20878E-13    6.67913E-09    2.54504E+06    1.81278E-05    1.14150E-06    7.55245E-15
      24      2.32513E-19    4.20009E+05    1.01756E-11    3.54611E+09    6.21213E-11    3.19708E-06
      25      9.03653E-20    1.67585E+06    3.67026E-08    5.33274E+09    1.28842E-10    2.82344E-06
      26       11140.        3.93750E-17    3.02346E-14    1.21148E-13    2.40810E+12    9.18476E-03
      27      6.43598E-19    5.17277E-12    4.65505E-02    2.70402E-09    1.39947E-10    4.16007E-11
      28      6.84705E-02    1.18417E-18    3.76187E-18    8.60467E-14    1.67352E+05    6.82884E-08
      29      3.61830E-08    2.13123E-15    6.83354E-19    1.20025E-10    1.05125E-03    6.56305E+12
      30      9.11814E-21    1.33427E+06    3.33368E-10    4.29077E+10    1.27343E-16    8.35617E-08
      31      1.44203E-12    1.29073E-09    1.06378E+06    2.80364E-06    3.51063E-07    1.12332E-11
      32      7.93832E-06    9.12157E-13    9.22443E-17    4.03051E-10     7.9075        5.97667E+10
      33       229.77        6.98322E-21    1.46462E-13    3.73994E-13    3.39100E+09    1.47239E-05
      34      5.38112E-13    1.90372E-14     74.519        9.30039E-09    9.77460E-06    2.28672E-13
      35       66380.        1.07981E-17    1.19765E-13    4.07252E-13    1.34424E+13    1.19272E-02
      36      4.20670E-07    2.33885E-14    7.51355E-12    2.76331E-09     1.5127        1.88632E+10
      37      7.66355E-15    3.37532E-11    8.63986E+06    1.85634E-08    1.06701E-07    1.30294E-08
      38      9.43052E-18     78161.        2.32713E-09    7.32645E+07    3.67829E-09    3.21713E-09
      39      9.69676E-09    5.03948E-14    1.76590E-14    3.30938E-09    2.79240E-02    3.23789E+10
      40      1.43811E-17     98701.        6.45131E-13    1.77581E+10    1.01548E-09    1.12336E-08
      41      1.56234E+06    1.97694E-17    1.23878E-13    2.63975E-15    7.84320E+11    4.20313E-03
      42      2.04476E-07    6.37472E-13    8.84720E-17    1.28074E-07    1.83891E-02    2.88479E+11
      43      2.31197E-16     3053.0        1.22713E-06    6.97562E+08    1.55524E-10    6.00460E-05
      44      6.60900E-10    5.41231E-10    7.02550E+05    5.09956E-04    3.47631E-05    3.53281E-10
      45      5.73017E+07    1.05815E-14    1.30504E-11    3.10694E-12    2.99678E+12    6.18466E-02
      46      3.58932E-14    3.94165E-14     2.0816        1.39446E-08    1.61923E-06    1.82242E-07
      47       28.142        2.42239E-13    4.14498E-14    5.02318E-10    2.02230E+07    2.18855E-07
      48      1.95309E+05    1.37755E-12    1.16850E-13    1.00863E-09    8.48775E+11    0.44277    
      49      4.58723E-05    2.72322E-11    4.44185E-12    4.75538E-10    1.22555E-03    9.28452E+11
      50      3.86524E-13    8.26237E+05    6.17278E-11    3.25429E+09    9.36801E-07    4.31831E-05
      51      1.67387E-05    3.53598E-11    8.18845E-12    8.58833E-09    0.11373        1.51563E+12
      52      3.65930E-12    4.33491E-09    4.31784E+05    3.54806E-05    1.35646E-08    2.63826E-03
      53      4.65921E-11    5.66621E+05    4.58703E-12    1.45794E+09    5.33540E-04    7.11634E-04
      54       39506.        1.23086E-17    4.62836E-14    4.07395E-12    7.20423E+11    3.05452E-03
      55      4.39854E-16     1568.8        3.13141E-07    2.63793E+08    1.04113E-08    5.20629E-04
      56      2.42750E-12    1.32012E-09    2.73098E+05    9.04403E-05    1.04498E-07    4.09862E-04
      57      1.59096E-07    4.48937E-14    1.41888E-18    1.33063E-11    3.43920E-02    2.25408E+10
      58      7.07496E-08    1.54921E-14    1.63182E-19    1.01604E-11    1.66043E-02    3.62117E+11
      59      1.11554E-18    1.22132E-13    7.60423E-02    8.91465E-10    7.32374E-14    2.67043E-07
      60      6.14459E-06    1.38273E-12    7.56183E-18    9.20282E-09     5.7134        1.48944E+10
      61      1.37129E-17    1.09971E+05    3.95800E-11    1.24774E+09    8.29895E-14    3.84197E-03
      62      0.18018        1.98010E-13    5.36605E-21    5.05755E-10    5.48213E+06    2.21247E-03
      63       5687.7        7.44784E-14    5.00467E-14    1.93311E-10    4.15553E+11    3.19127E-02
      64      2.93530E-19    1.28791E+06    1.16938E-12    2.05252E+08    1.44510E-14    1.69408E-03
      65      4.95630E-13    1.62261E-09    1.80459E+05    7.48481E-04    3.66494E-08    6.89993E-03
      66      5.17377E-09    5.67283E-13    1.61812E-19    1.43277E-08    2.79530E-04    5.51959E+12
      67      3.59168E-19     3053.4        4.11563E-08    2.30697E+08    2.94574E-12    1.75010E-02
      68       15174.        1.50462E-12    2.62137E-15    3.88457E-09    2.90768E+11    6.60676E-02
      69      2.62896E-20    1.16444E+07    2.46996E-12    3.23228E+08    1.81156E-15    2.56061E-03
      70      5.85693E-09    7.25063E-12    7.66794E-21    1.21059E-10    1.59961E-06    2.27663E+13
      71      3.51326E-06    2.14257E-11    6.52533E-15    2.49212E-08    0.18338        6.03321E+09
      72      1.82390E-16    6.44500E-08    1.29214E+05    2.79998E-05    1.29122E-10    1.53163E-02
      73      2.65441E-18    9.91704E-11    3.08981E-02    3.37922E-07    5.49388E-11    3.07652E-03
      74      3.08853E-20    1.11431E+06    2.52443E-12    2.34439E+09    4.65043E-13    7.62972E-04
      75       103.64        2.29638E-11    3.20958E-15    5.90696E-08    6.82647E+08    6.13241E-03
      76       63032.        3.40803E-10    1.02495E-14    8.76493E-07    3.92611E+11    6.50372E-03
      77      4.54540E-14    4.70433E-11     8790.3        1.45527E-07    2.33845E-07    2.59674E-03
      78      2.75276E-10    1.07081E-11    9.37799E-19    2.89650E-08    2.92331E-04    2.02515E+09
      79      3.68549E-16     3930.1        1.42705E-14    4.94315E+06    6.46061E-11    3.91052E-05
      80      1.75671E-16    1.32000E-10     3.3246        4.23305E-07    4.51178E-09    8.86830E-03
      81      0.40274        1.20262E-10    4.88755E-16    3.08910E-07     59718.        1.89319E-03
      82      1.91584E-08    8.19056E-12    2.08046E-18    2.16357E-08    1.71910E-02    8.83507E+11
      83       831.82        2.26051E-10    1.22685E-14    5.81736E-07    2.20950E+11    7.27057E-05
      84      1.38326E-17    8.01280E+05    1.66872E-09    1.12128E+09    2.92370E-12    6.53627E-04
      85      1.62463E-09    5.69529E-12    1.06252E-20    6.66579E-07    7.35835E-05    5.81580E+12
      86      1.81000E-14     32601.        1.26085E-06    3.79251E+08    1.67417E-09    3.83500E-03
      87      3.28117E-14     3377.4        1.10504E-09    2.98382E+06    9.48628E-10    2.55496E-02
      88      2.83879E-13    2.63606E-11    6.20778E-04    1.15914E-07    9.98920E-08    3.83360E-03
      89      2.35467E-15    2.24012E+06    2.35623E-08    3.88684E+09    1.12329E-11    6.91922E-05
      90      6.49241E-12    4.16868E-08    1.01463E+05    4.27278E-04    1.52411E-06    1.88422E-05
      91      1.28485E+06    9.53381E-11    1.21816E-13    2.47223E-07    6.82030E+11    1.55554E-05
      92      2.46873E-13    7.87900E-12    1.16388E+05    8.03987E-08    2.77046E-07    3.54656E-06
      93       92654.        9.23665E-11    6.97625E-12    2.67215E-07    2.68109E+11     6.7466    
      94      4.25387E-04    1.19625E-10    2.01512E-14    3.23046E-07     1495.2        1.08634E+09
      95      3.45171E-09    7.79517E-11    1.79109E-12    1.87552E-07    8.58465E-04    6.21806E+09
      96      1.20041E-13    1.17882E-11     1.7556        2.14599E-08    2.85539E-07    9.93023E-07
      97       2.3365        3.02281E-11    1.78092E-12    1.46613E-07    4.10576E+06    4.50985E-06
      98      8.19335E-10    4.49983E-08     80195.        5.25064E-04    1.17828E-05    3.91938E-05
      99      1.23169E-10    3.62773E+05    4.11419E-10    8.96320E+07    1.23796E-05    5.53566E-05
     100      7.98254E-09     5808.6        2.00201E-08    7.61381E+07    1.22218E-04    2.54757E-05

 TOTAL        2.26038E+08    2.45057E+08    8.73791E+07    1.30581E+13    7.80902E+13    3.80118E+14


          THE ANALYSIS HAS BEEN COMPLETED



                              ANALYSIS COMPLETE
                              WITH    201 WARNING MESSAGES ON THE DAT FILE
                              AND       7 WARNING MESSAGES ON THE MSG FILE
                                        6 WARNINGS ARE FOR NEGATIVE EIGENVALUES



     JOB TIME SUMMARY
       USER TIME (SEC)      =   83.900    
       SYSTEM TIME (SEC)    =   12.500    
       TOTAL CPU TIME (SEC) =   96.400    
       WALLCLOCK TIME (SEC) =         51
