1

   Abaqus 3DEXPERIENCE R2017x                                  Date 10-Apr-2023   Time 13:23:14
   For use by NTNU NORGES TEKNISK NATURVITENSKAPELIGE UNIVERSITET under license from Dassault Systemes or its subsidiary.

                                                                                 
                                                                                 
 STEP    1     INCREMENT     1     STEP TIME    0.00    


                        S T E P       1     S T A T I C   A N A L Y S I S


                                                                                          

     AUTOMATIC TIME CONTROL WITH -
          A SUGGESTED INITIAL TIME INCREMENT OF                0.100    
          AND A TOTAL TIME PERIOD OF                            1.00    
          THE MINIMUM TIME INCREMENT ALLOWED IS                1.000E-06
          THE MAXIMUM TIME INCREMENT ALLOWED IS                 1.00    

     LINEAR EQUATION SOLVER TYPE         DIRECT SPARSE

 CONVERGENCE TOLERANCE PARAMETERS FOR FORCE    
     CRITERION FOR RESIDUAL FORCE     FOR A NONLINEAR PROBLEM          5.000E-03
     CRITERION FOR DISP.    CORRECTION IN A NONLINEAR PROBLEM          1.000E-02
     INITIAL VALUE OF TIME AVERAGE FORCE                               1.000E-02
     AVERAGE FORCE     IS TIME AVERAGE FORCE    
     ALTERNATE CRIT. FOR RESIDUAL FORCE     FOR A NONLINEAR PROBLEM    2.000E-02
     CRITERION FOR ZERO FORCE     RELATIVE TO TIME AVRG. FORCE         1.000E-05
     CRITERION FOR RESIDUAL FORCE     WHEN THERE IS ZERO FLUX          1.000E-05
     CRITERION FOR DISP.    CORRECTION WHEN THERE IS ZERO FLUX         1.000E-03
     CRITERION FOR RESIDUAL FORCE     FOR A LINEAR INCREMENT           1.000E-08
     FIELD CONVERSION RATIO                                             1.00    
     CRITERION FOR ZERO FORCE     REL. TO TIME AVRG. MAX. FORCE        1.000E-05
     CRITERION FOR ZERO DISP.    RELATIVE TO CHARACTERISTIC LENGTH     1.000E-08

 CONVERGENCE TOLERANCE PARAMETERS FOR MOMENT   
     CRITERION FOR RESIDUAL MOMENT    FOR A NONLINEAR PROBLEM          5.000E-03
     CRITERION FOR ROTATION CORRECTION IN A NONLINEAR PROBLEM          1.000E-02
     INITIAL VALUE OF TIME AVERAGE MOMENT                              1.000E-02
     AVERAGE MOMENT    IS TIME AVERAGE MOMENT   
     ALTERNATE CRIT. FOR RESIDUAL MOMENT    FOR A NONLINEAR PROBLEM    2.000E-02
     CRITERION FOR ZERO MOMENT    RELATIVE TO TIME AVRG. MOMENT        1.000E-05
     CRITERION FOR RESIDUAL MOMENT    WHEN THERE IS ZERO FLUX          1.000E-05
     CRITERION FOR ROTATION CORRECTION WHEN THERE IS ZERO FLUX         1.000E-03
     CRITERION FOR RESIDUAL MOMENT    FOR A LINEAR INCREMENT           1.000E-08
     FIELD CONVERSION RATIO                                             1.00    
     CRITERION FOR ZERO MOMENT    REL. TO TIME AVRG. MAX. MOMENT       1.000E-05

     VOLUMETRIC STRAIN COMPATIBILITY TOLERANCE FOR HYBRID SOLIDS       1.000E-05
     AXIAL STRAIN COMPATIBILITY TOLERANCE FOR HYBRID BEAMS             1.000E-05
     TRANS. SHEAR STRAIN COMPATIBILITY TOLERANCE FOR HYBRID BEAMS      1.000E-05
     SOFT CONTACT CONSTRAINT COMPATIBILITY TOLERANCE FOR P>P0          5.000E-03
     SOFT CONTACT CONSTRAINT COMPATIBILITY TOLERANCE FOR P=0.0         0.100    
     CONTACT FORCE ERROR TOLERANCE FOR CONVERT SDI=YES                 1.00    
     DISPLACEMENT COMPATIBILITY TOLERANCE FOR DCOUP ELEMENTS           1.000E-05
     ROTATION COMPATIBILITY TOLERANCE FOR DCOUP ELEMENTS               1.000E-05

 EQUILIBRIUM WILL BE CHECKED FOR SEVERE DISCONTINUITY ITERATIONS

 TIME INCREMENTATION CONTROL PARAMETERS:
     FIRST EQUILIBRIUM ITERATION FOR CONSECUTIVE DIVERGENCE CHECK              4
     EQUILIBRIUM ITERATION AT WHICH LOG. CONVERGENCE RATE CHECK BEGINS         8
     EQUILIBRIUM ITERATION AFTER WHICH ALTERNATE RESIDUAL IS USED              9
     MAXIMUM EQUILIBRIUM ITERATIONS ALLOWED                                   16
     EQUILIBRIUM ITERATION COUNT FOR CUT-BACK IN NEXT INCREMENT               10
     MAXIMUM EQUILIB. ITERS IN TWO INCREMENTS FOR TIME INCREMENT INCREASE      4
     MAXIMUM ITERATIONS FOR SEVERE DISCONTINUITIES                            50
     MAXIMUM ATTEMPTS ALLOWED IN AN INCREMENT                                  5
     MAXIMUM DISCON. ITERS IN TWO INCREMENTS FOR TIME INCREMENT INCREASE      50
     MAXIMUM CONTACT AUGMENTATIONS FOR *SURFACE BEHAVIOR,AUGMENTED LAGRANGE   50
     CUT-BACK FACTOR AFTER DIVERGENCE                                 0.2500    
     CUT-BACK FACTOR FOR TOO SLOW CONVERGENCE                         0.5000    
     CUT-BACK FACTOR AFTER TOO MANY EQUILIBRIUM ITERATIONS            0.7500    
     CUT-BACK FACTOR AFTER TOO MANY SEVERE DISCONTINUITY ITERATIONS   0.2500    
     CUT-BACK FACTOR AFTER PROBLEMS IN ELEMENT ASSEMBLY               0.2500    
     INCREASE FACTOR AFTER TWO INCREMENTS THAT CONVERGE QUICKLY        1.500    
     MAX. TIME INCREMENT INCREASE FACTOR ALLOWED                       1.500    
     MAX. TIME INCREMENT INCREASE FACTOR ALLOWED (DYNAMICS)            1.250    
     MAX. TIME INCREMENT INCREASE FACTOR ALLOWED (DIFFUSION)           2.000    
     MINIMUM TIME INCREMENT RATIO FOR EXTRAPOLATION TO OCCUR          0.1000    
     MAX. RATIO OF TIME INCREMENT TO STABILITY LIMIT                   1.000    
     FRACTION OF STABILITY LIMIT FOR NEW TIME INCREMENT               0.9500    
     TIME INCREMENT INCREASE FACTOR BEFORE A TIME POINT                1.000    
     GLOBAL STABILIZATION CONTROL IS NOT USED

          PRINT OF INCREMENT NUMBER, TIME, ETC., EVERY    1  INCREMENTS

     THE MAXIMUM NUMBER OF INCREMENTS IN THIS STEP IS                     100

          LARGE DISPLACEMENT THEORY WILL BE USED

     LINEAR EXTRAPOLATION WILL BE USED

     CHARACTERISTIC ELEMENT LENGTH      15.7    

     DETAILS REGARDING ACTUAL SOLUTION WAVEFRONT REQUESTED

     DETAILED OUTPUT OF DIAGNOSTICS TO DATABASE REQUESTED

     PRINT OF INCREMENT NUMBER, TIME, ETC., TO THE MESSAGE FILE EVERY     1  INCREMENTS

     ELEMENT OPERATIONS WILL BE CARRIED OUT IN PARALLEL USING   4 PROCESSORS

     PARALLEL CONTACT TRACKING ENABLED


     COLLECTING MODEL CONSTRAINT INFORMATION FOR OVERCONSTRAINT CHECKS

     COLLECTING STEP CONSTRAINT INFORMATION FOR OVERCONSTRAINT CHECKS
  
     ASYNCHRONOUS OUTPUT DATABASE FRAME FLUSH STARTED
  


  INCREMENT     1 STARTS. ATTEMPT NUMBER  1, TIME INCREMENT  0.100    
 
     INITIAL ELEMENT LOAD BALANCE
        COMPUTE NODE   1   PROCESS    NUMBER OF ELEMENTS
                              1            768
                              2            768
                              3            1024
                              4            1145

 ***WARNING: THERE ARE 2 UNCONNECTED REGIONS IN THE MODEL.

  NUMBER OF EQUATIONS =      2088     NUMBER OF FLOATING PT. OPERATIONS =  5.11E+05

  USING THE DIRECT SOLVER WITH   4 PROCESSORS

     CHECK POINT   START OF SOLVER    

     CHECK POINT  END OF SOLVER       

       ELAPSED USER TIME (SEC)      =  0.10000    
       ELAPSED SYSTEM TIME (SEC)    =   0.0000    
       ELAPSED TOTAL CPU TIME (SEC) =  0.10000    
       ELAPSED WALLCLOCK TIME (SEC) =          0

               CONVERGENCE CHECKS FOR EQUILIBRIUM ITERATION     1


 AVERAGE FORCE                      2.258E+06   TIME AVG. FORCE       2.258E+06
 LARGEST RESIDUAL FORCE            -1.035E+06   AT NODE     100075   DOF  3
   INSTANCE: SUSPENSIONBRIDGE                                                                
 LARGEST INCREMENT OF DISP.        -0.265       AT NODE     100075   DOF  1
   INSTANCE: SUSPENSIONBRIDGE                                                                
 LARGEST CORRECTION TO DISP.       -0.265       AT NODE     100075   DOF  1
   INSTANCE: SUSPENSIONBRIDGE                                                                
          FORCE     EQUILIBRIUM NOT ACHIEVED WITHIN TOLERANCE.

 AVERAGE MOMENT                     2.011E+07   TIME AVG. MOMENT      2.011E+07
 LARGEST RESIDUAL MOMENT            4.207E+04   AT NODE     100072   DOF  4
   INSTANCE: SUSPENSIONBRIDGE                                                                
 LARGEST INCREMENT OF ROTATION     -1.207E-03   AT NODE     100075   DOF  5
   INSTANCE: SUSPENSIONBRIDGE                                                                
 LARGEST CORRECTION TO ROTATION    -1.207E-03   AT NODE     100075   DOF  5
   INSTANCE: SUSPENSIONBRIDGE                                                                
          ROTATION CORRECTION TOO LARGE COMPARED TO ROTATION INCREMENT

  NUMBER OF EQUATIONS =      2088     NUMBER OF FLOATING PT. OPERATIONS =  5.11E+05

  USING THE DIRECT SOLVER WITH   4 PROCESSORS

     CHECK POINT   START OF SOLVER    

     CHECK POINT  END OF SOLVER       

       ELAPSED USER TIME (SEC)      =   0.0000    
       ELAPSED SYSTEM TIME (SEC)    =   0.0000    
       ELAPSED TOTAL CPU TIME (SEC) =   0.0000    
       ELAPSED WALLCLOCK TIME (SEC) =          0

               CONVERGENCE CHECKS FOR EQUILIBRIUM ITERATION     2


 AVERAGE FORCE                      2.305E+06   TIME AVG. FORCE       2.305E+06
 LARGEST RESIDUAL FORCE             -929.       AT NODE     210075   DOF  3
   INSTANCE: SUSPENSIONBRIDGE                                                                
 LARGEST INCREMENT OF DISP.         0.273       AT NODE     200075   DOF  1
   INSTANCE: SUSPENSIONBRIDGE                                                                
 LARGEST CORRECTION TO DISP.        8.635E-03   AT NODE     200075   DOF  1
   INSTANCE: SUSPENSIONBRIDGE                                                                
 ESTIMATE OF DISP.    CORRECTION    9.239E-06
 FORCE     EQUILIB. ACCEPTED BASED ON SMALL RESIDUAL AND ESTIMATED CORRECTION

 AVERAGE MOMENT                     2.072E+07   TIME AVG. MOMENT      2.072E+07
 LARGEST RESIDUAL MOMENT             198.       AT NODE     100058   DOF  6
   INSTANCE: SUSPENSIONBRIDGE                                                                
 LARGEST INCREMENT OF ROTATION      1.243E-03   AT NODE     200075   DOF  5
   INSTANCE: SUSPENSIONBRIDGE                                                                
 LARGEST CORRECTION TO ROTATION     3.622E-05   AT NODE     200075   DOF  5
   INSTANCE: SUSPENSIONBRIDGE                                                                
 ESTIMATE OF ROTATION CORRECTION    1.706E-07
 MOMENT    EQUILIB. ACCEPTED BASED ON SMALL RESIDUAL AND ESTIMATED CORRECTION

 ITERATION SUMMARY FOR THE INCREMENT:   2 TOTAL ITERATIONS, OF WHICH
   0 ARE SEVERE DISCONTINUITY ITERATIONS AND  2 ARE EQUILIBRIUM ITERATIONS.

 TIME INCREMENT COMPLETED  0.100    ,  FRACTION OF STEP COMPLETED  0.100    
 STEP TIME COMPLETED       0.100    ,  TOTAL TIME COMPLETED        0.100    


  INCREMENT     2 STARTS. ATTEMPT NUMBER  1, TIME INCREMENT  0.100    

  NUMBER OF EQUATIONS =      2088     NUMBER OF FLOATING PT. OPERATIONS =  5.11E+05

  USING THE DIRECT SOLVER WITH   4 PROCESSORS

     CHECK POINT   START OF SOLVER    

     CHECK POINT  END OF SOLVER       

       ELAPSED USER TIME (SEC)      =   0.0000    
       ELAPSED SYSTEM TIME (SEC)    =   0.0000    
       ELAPSED TOTAL CPU TIME (SEC) =   0.0000    
       ELAPSED WALLCLOCK TIME (SEC) =          0

               CONVERGENCE CHECKS FOR EQUILIBRIUM ITERATION     1


 AVERAGE FORCE                      1.090E+07   TIME AVG. FORCE       6.601E+06
 LARGEST RESIDUAL FORCE            -8.694E+03   AT NODE     201404   DOF  3
   INSTANCE: SUSPENSIONBRIDGE                                                                
 LARGEST INCREMENT OF DISP.         0.291       AT NODE     210075   DOF  1
   INSTANCE: SUSPENSIONBRIDGE                                                                
 LARGEST CORRECTION TO DISP.        1.792E-02   AT NODE     210075   DOF  1
   INSTANCE: SUSPENSIONBRIDGE                                                                
 ESTIMATE OF DISP.    CORRECTION    7.091E-05
 FORCE     EQUILIB. ACCEPTED BASED ON SMALL RESIDUAL AND ESTIMATED CORRECTION

 AVERAGE MOMENT                     4.654E+07   TIME AVG. MOMENT      3.363E+07
 LARGEST RESIDUAL MOMENT           -7.749E+04   AT NODE     210072   DOF  4
   INSTANCE: SUSPENSIONBRIDGE                                                                
 LARGEST INCREMENT OF ROTATION      1.319E-03   AT NODE     210075   DOF  5
   INSTANCE: SUSPENSIONBRIDGE                                                                
 LARGEST CORRECTION TO ROTATION     7.520E-05   AT NODE     210075   DOF  5
   INSTANCE: SUSPENSIONBRIDGE                                                                
          ROTATION CORRECTION TOO LARGE COMPARED TO ROTATION INCREMENT

  NUMBER OF EQUATIONS =      2088     NUMBER OF FLOATING PT. OPERATIONS =  5.11E+05

  USING THE DIRECT SOLVER WITH   4 PROCESSORS

     CHECK POINT   START OF SOLVER    

     CHECK POINT  END OF SOLVER       

       ELAPSED USER TIME (SEC)      =  0.10000    
       ELAPSED SYSTEM TIME (SEC)    =   0.0000    
       ELAPSED TOTAL CPU TIME (SEC) =  0.10000    
       ELAPSED WALLCLOCK TIME (SEC) =          0

               CONVERGENCE CHECKS FOR EQUILIBRIUM ITERATION     2


 AVERAGE FORCE                      1.097E+07   TIME AVG. FORCE       6.635E+06
 LARGEST RESIDUAL FORCE             -4.72       AT NODE     110075   DOF  3
   INSTANCE: SUSPENSIONBRIDGE                                                                
 LARGEST INCREMENT OF DISP.        -0.292       AT NODE     110075   DOF  1
   INSTANCE: SUSPENSIONBRIDGE                                                                
 LARGEST CORRECTION TO DISP.       -6.193E-04   AT NODE     110075   DOF  1
   INSTANCE: SUSPENSIONBRIDGE                                                                
          THE FORCE     EQUILIBRIUM EQUATIONS HAVE CONVERGED

 AVERAGE MOMENT                     4.659E+07   TIME AVG. MOMENT      3.365E+07
 LARGEST RESIDUAL MOMENT            -28.3       AT NODE     110058   DOF  6
   INSTANCE: SUSPENSIONBRIDGE                                                                
 LARGEST INCREMENT OF ROTATION     -1.321E-03   AT NODE     110075   DOF  5
   INSTANCE: SUSPENSIONBRIDGE                                                                
 LARGEST CORRECTION TO ROTATION    -2.578E-06   AT NODE     110075   DOF  5
   INSTANCE: SUSPENSIONBRIDGE                                                                
          THE MOMENT    EQUILIBRIUM EQUATIONS HAVE CONVERGED
          TIME INCREMENT MAY NOW INCREASE TO    0.150    

 ITERATION SUMMARY FOR THE INCREMENT:   2 TOTAL ITERATIONS, OF WHICH
   0 ARE SEVERE DISCONTINUITY ITERATIONS AND  2 ARE EQUILIBRIUM ITERATIONS.

 TIME INCREMENT COMPLETED  0.100    ,  FRACTION OF STEP COMPLETED  0.200    
 STEP TIME COMPLETED       0.200    ,  TOTAL TIME COMPLETED        0.200    


  INCREMENT     3 STARTS. ATTEMPT NUMBER  1, TIME INCREMENT  0.150    

  NUMBER OF EQUATIONS =      2088     NUMBER OF FLOATING PT. OPERATIONS =  5.11E+05

  USING THE DIRECT SOLVER WITH   4 PROCESSORS

     CHECK POINT   START OF SOLVER    

     CHECK POINT  END OF SOLVER       

       ELAPSED USER TIME (SEC)      =  0.10000    
       ELAPSED SYSTEM TIME (SEC)    =  0.10000    
       ELAPSED TOTAL CPU TIME (SEC) =  0.20000    
       ELAPSED WALLCLOCK TIME (SEC) =          0

               CONVERGENCE CHECKS FOR EQUILIBRIUM ITERATION     1


 AVERAGE FORCE                      1.907E+07   TIME AVG. FORCE       1.078E+07
 LARGEST RESIDUAL FORCE            -1.847E+04   AT NODE     201404   DOF  3
   INSTANCE: SUSPENSIONBRIDGE                                                                
 LARGEST INCREMENT OF DISP.        -0.475       AT NODE     100075   DOF  1
   INSTANCE: SUSPENSIONBRIDGE                                                                
 LARGEST CORRECTION TO DISP.       -3.707E-02   AT NODE     100075   DOF  1
   INSTANCE: SUSPENSIONBRIDGE                                                                
 ESTIMATE OF DISP.    CORRECTION   -1.474E-04
 FORCE     EQUILIB. ACCEPTED BASED ON SMALL RESIDUAL AND ESTIMATED CORRECTION

 AVERAGE MOMENT                     8.542E+07   TIME AVG. MOMENT      5.091E+07
 LARGEST RESIDUAL MOMENT           -1.647E+05   AT NODE     210072   DOF  4
   INSTANCE: SUSPENSIONBRIDGE                                                                
 LARGEST INCREMENT OF ROTATION     -2.137E-03   AT NODE     110075   DOF  5
   INSTANCE: SUSPENSIONBRIDGE                                                                
 LARGEST CORRECTION TO ROTATION    -1.554E-04   AT NODE     110075   DOF  5
   INSTANCE: SUSPENSIONBRIDGE                                                                
          ROTATION CORRECTION TOO LARGE COMPARED TO ROTATION INCREMENT

  NUMBER OF EQUATIONS =      2088     NUMBER OF FLOATING PT. OPERATIONS =  5.11E+05

  USING THE DIRECT SOLVER WITH   4 PROCESSORS

     CHECK POINT   START OF SOLVER    

     CHECK POINT  END OF SOLVER       

       ELAPSED USER TIME (SEC)      =  0.10000    
       ELAPSED SYSTEM TIME (SEC)    =   0.0000    
       ELAPSED TOTAL CPU TIME (SEC) =  0.10000    
       ELAPSED WALLCLOCK TIME (SEC) =          0

               CONVERGENCE CHECKS FOR EQUILIBRIUM ITERATION     2


 AVERAGE FORCE                      1.919E+07   TIME AVG. FORCE       1.082E+07
 LARGEST RESIDUAL FORCE             -50.5       AT NODE     210075   DOF  3
   INSTANCE: SUSPENSIONBRIDGE                                                                
 LARGEST INCREMENT OF DISP.         0.477       AT NODE     210075   DOF  1
   INSTANCE: SUSPENSIONBRIDGE                                                                
 LARGEST CORRECTION TO DISP.        2.027E-03   AT NODE     210075   DOF  1
   INSTANCE: SUSPENSIONBRIDGE                                                                
          THE FORCE     EQUILIBRIUM EQUATIONS HAVE CONVERGED

 AVERAGE MOMENT                     8.557E+07   TIME AVG. MOMENT      5.096E+07
 LARGEST RESIDUAL MOMENT            -162.       AT NODE     200058   DOF  6
   INSTANCE: SUSPENSIONBRIDGE                                                                
 LARGEST INCREMENT OF ROTATION     -2.145E-03   AT NODE     100075   DOF  5
   INSTANCE: SUSPENSIONBRIDGE                                                                
 LARGEST CORRECTION TO ROTATION    -8.437E-06   AT NODE     100075   DOF  5
   INSTANCE: SUSPENSIONBRIDGE                                                                
          THE MOMENT    EQUILIBRIUM EQUATIONS HAVE CONVERGED
          TIME INCREMENT MAY NOW INCREASE TO    0.225    

 ITERATION SUMMARY FOR THE INCREMENT:   2 TOTAL ITERATIONS, OF WHICH
   0 ARE SEVERE DISCONTINUITY ITERATIONS AND  2 ARE EQUILIBRIUM ITERATIONS.

 TIME INCREMENT COMPLETED  0.150    ,  FRACTION OF STEP COMPLETED  0.350    
 STEP TIME COMPLETED       0.350    ,  TOTAL TIME COMPLETED        0.350    


  INCREMENT     4 STARTS. ATTEMPT NUMBER  1, TIME INCREMENT  0.225    

  NUMBER OF EQUATIONS =      2088     NUMBER OF FLOATING PT. OPERATIONS =  5.11E+05

  USING THE DIRECT SOLVER WITH   4 PROCESSORS

     CHECK POINT   START OF SOLVER    

     CHECK POINT  END OF SOLVER       

       ELAPSED USER TIME (SEC)      =  0.10000    
       ELAPSED SYSTEM TIME (SEC)    =   0.0000    
       ELAPSED TOTAL CPU TIME (SEC) =  0.10000    
       ELAPSED WALLCLOCK TIME (SEC) =          0

               CONVERGENCE CHECKS FOR EQUILIBRIUM ITERATION     1


 AVERAGE FORCE                      3.103E+07   TIME AVG. FORCE       1.587E+07
 LARGEST RESIDUAL FORCE            -1.146E+05   AT NODE     210075   DOF  3
   INSTANCE: SUSPENSIONBRIDGE                                                                
 LARGEST INCREMENT OF DISP.         0.812       AT NODE     200075   DOF  1
   INSTANCE: SUSPENSIONBRIDGE                                                                
 LARGEST CORRECTION TO DISP.        9.603E-02   AT NODE     200075   DOF  1
   INSTANCE: SUSPENSIONBRIDGE                                                                
          FORCE     EQUILIBRIUM NOT ACHIEVED WITHIN TOLERANCE.

 AVERAGE MOMENT                     1.514E+08   TIME AVG. MOMENT      7.606E+07
 LARGEST RESIDUAL MOMENT           -4.380E+05   AT NODE     210072   DOF  4
   INSTANCE: SUSPENSIONBRIDGE                                                                
 LARGEST INCREMENT OF ROTATION      3.620E-03   AT NODE     210075   DOF  5
   INSTANCE: SUSPENSIONBRIDGE                                                                
 LARGEST CORRECTION TO ROTATION     4.023E-04   AT NODE     210075   DOF  5
   INSTANCE: SUSPENSIONBRIDGE                                                                
          MOMENT    EQUILIBRIUM NOT ACHIEVED WITHIN TOLERANCE.

  NUMBER OF EQUATIONS =      2088     NUMBER OF FLOATING PT. OPERATIONS =  5.11E+05

  USING THE DIRECT SOLVER WITH   4 PROCESSORS

     CHECK POINT   START OF SOLVER    

     CHECK POINT  END OF SOLVER       

       ELAPSED USER TIME (SEC)      =  0.10000    
       ELAPSED SYSTEM TIME (SEC)    =   0.0000    
       ELAPSED TOTAL CPU TIME (SEC) =  0.10000    
       ELAPSED WALLCLOCK TIME (SEC) =          0

               CONVERGENCE CHECKS FOR EQUILIBRIUM ITERATION     2


 AVERAGE FORCE                      3.152E+07   TIME AVG. FORCE       1.600E+07
 LARGEST RESIDUAL FORCE             -903.       AT NODE     110075   DOF  3
   INSTANCE: SUSPENSIONBRIDGE                                                                
 LARGEST INCREMENT OF DISP.        -0.820       AT NODE     100075   DOF  1
   INSTANCE: SUSPENSIONBRIDGE                                                                
 LARGEST CORRECTION TO DISP.       -8.580E-03   AT NODE     100075   DOF  1
   INSTANCE: SUSPENSIONBRIDGE                                                                
 ESTIMATE OF DISP.    CORRECTION   -6.761E-05
 FORCE     EQUILIB. ACCEPTED BASED ON SMALL RESIDUAL AND ESTIMATED CORRECTION

 AVERAGE MOMENT                     1.520E+08   TIME AVG. MOMENT      7.622E+07
 LARGEST RESIDUAL MOMENT            1.122E+03   AT NODE     100058   DOF  6
   INSTANCE: SUSPENSIONBRIDGE                                                                
 LARGEST INCREMENT OF ROTATION     -3.656E-03   AT NODE     100075   DOF  5
   INSTANCE: SUSPENSIONBRIDGE                                                                
 LARGEST CORRECTION TO ROTATION    -3.571E-05   AT NODE     100075   DOF  5
   INSTANCE: SUSPENSIONBRIDGE                                                                
          THE MOMENT    EQUILIBRIUM EQUATIONS HAVE CONVERGED
          TIME INCREMENT MAY NOW INCREASE TO    0.338    

 ITERATION SUMMARY FOR THE INCREMENT:   2 TOTAL ITERATIONS, OF WHICH
   0 ARE SEVERE DISCONTINUITY ITERATIONS AND  2 ARE EQUILIBRIUM ITERATIONS.

 TIME INCREMENT COMPLETED  0.225    ,  FRACTION OF STEP COMPLETED  0.575    
 STEP TIME COMPLETED       0.575    ,  TOTAL TIME COMPLETED        0.575    


  INCREMENT     5 STARTS. ATTEMPT NUMBER  1, TIME INCREMENT  0.338    

  NUMBER OF EQUATIONS =      2088     NUMBER OF FLOATING PT. OPERATIONS =  5.11E+05

  USING THE DIRECT SOLVER WITH   4 PROCESSORS

     CHECK POINT   START OF SOLVER    

     CHECK POINT  END OF SOLVER       

       ELAPSED USER TIME (SEC)      =   0.0000    
       ELAPSED SYSTEM TIME (SEC)    =   0.0000    
       ELAPSED TOTAL CPU TIME (SEC) =   0.0000    
       ELAPSED WALLCLOCK TIME (SEC) =          0

               CONVERGENCE CHECKS FOR EQUILIBRIUM ITERATION     1


 AVERAGE FORCE                      4.828E+07   TIME AVG. FORCE       2.245E+07
 LARGEST RESIDUAL FORCE            -9.070E+05   AT NODE     100075   DOF  3
   INSTANCE: SUSPENSIONBRIDGE                                                                
 LARGEST INCREMENT OF DISP.          1.50       AT NODE     210075   DOF  1
   INSTANCE: SUSPENSIONBRIDGE                                                                
 LARGEST CORRECTION TO DISP.        0.270       AT NODE     210075   DOF  1
   INSTANCE: SUSPENSIONBRIDGE                                                                
          FORCE     EQUILIBRIUM NOT ACHIEVED WITHIN TOLERANCE.

 AVERAGE MOMENT                     2.717E+08   TIME AVG. MOMENT      1.153E+08
 LARGEST RESIDUAL MOMENT           -1.299E+06   AT NODE     210072   DOF  4
   INSTANCE: SUSPENSIONBRIDGE                                                                
 LARGEST INCREMENT OF ROTATION      6.616E-03   AT NODE     210075   DOF  5
   INSTANCE: SUSPENSIONBRIDGE                                                                
 LARGEST CORRECTION TO ROTATION     1.132E-03   AT NODE     210075   DOF  5
   INSTANCE: SUSPENSIONBRIDGE                                                                
          MOMENT    EQUILIBRIUM NOT ACHIEVED WITHIN TOLERANCE.

  NUMBER OF EQUATIONS =      2088     NUMBER OF FLOATING PT. OPERATIONS =  5.11E+05

  USING THE DIRECT SOLVER WITH   4 PROCESSORS

     CHECK POINT   START OF SOLVER    

     CHECK POINT  END OF SOLVER       

       ELAPSED USER TIME (SEC)      =   0.0000    
       ELAPSED SYSTEM TIME (SEC)    =   0.0000    
       ELAPSED TOTAL CPU TIME (SEC) =   0.0000    
       ELAPSED WALLCLOCK TIME (SEC) =          0

               CONVERGENCE CHECKS FOR EQUILIBRIUM ITERATION     2


 AVERAGE FORCE                      5.003E+07   TIME AVG. FORCE       2.280E+07
 LARGEST RESIDUAL FORCE            -2.137E+04   AT NODE     200075   DOF  3
   INSTANCE: SUSPENSIONBRIDGE                                                                
 LARGEST INCREMENT OF DISP.          1.54       AT NODE     210075   DOF  1
   INSTANCE: SUSPENSIONBRIDGE                                                                
 LARGEST CORRECTION TO DISP.       -4.175E-02   AT NODE     100075   DOF  1
   INSTANCE: SUSPENSIONBRIDGE                                                                
 ESTIMATE OF DISP.    CORRECTION   -9.837E-04
 FORCE     EQUILIB. ACCEPTED BASED ON SMALL RESIDUAL AND ESTIMATED CORRECTION

 AVERAGE MOMENT                     2.754E+08   TIME AVG. MOMENT      1.161E+08
 LARGEST RESIDUAL MOMENT            8.632E+03   AT NODE     100058   DOF  6
   INSTANCE: SUSPENSIONBRIDGE                                                                
 LARGEST INCREMENT OF ROTATION      6.789E-03   AT NODE     200075   DOF  5
   INSTANCE: SUSPENSIONBRIDGE                                                                
 LARGEST CORRECTION TO ROTATION    -1.737E-04   AT NODE     100075   DOF  5
   INSTANCE: SUSPENSIONBRIDGE                                                                
 ESTIMATE OF ROTATION CORRECTION   -3.902E-06
 MOMENT    EQUILIB. ACCEPTED BASED ON SMALL RESIDUAL AND ESTIMATED CORRECTION

 ITERATION SUMMARY FOR THE INCREMENT:   2 TOTAL ITERATIONS, OF WHICH
   0 ARE SEVERE DISCONTINUITY ITERATIONS AND  2 ARE EQUILIBRIUM ITERATIONS.

 TIME INCREMENT COMPLETED  0.338    ,  FRACTION OF STEP COMPLETED  0.913    
 STEP TIME COMPLETED       0.913    ,  TOTAL TIME COMPLETED        0.913    


  INCREMENT     6 STARTS. ATTEMPT NUMBER  1, TIME INCREMENT  8.750E-02

  NUMBER OF EQUATIONS =      2088     NUMBER OF FLOATING PT. OPERATIONS =  5.11E+05

  USING THE DIRECT SOLVER WITH   4 PROCESSORS

     CHECK POINT   START OF SOLVER    

     CHECK POINT  END OF SOLVER       

       ELAPSED USER TIME (SEC)      =   0.0000    
       ELAPSED SYSTEM TIME (SEC)    =   0.0000    
       ELAPSED TOTAL CPU TIME (SEC) =   0.0000    
       ELAPSED WALLCLOCK TIME (SEC) =          0

               CONVERGENCE CHECKS FOR EQUILIBRIUM ITERATION     1


 AVERAGE FORCE                      5.432E+07   TIME AVG. FORCE       2.805E+07
 LARGEST RESIDUAL FORCE            -7.349E+04   AT NODE     210075   DOF  3
   INSTANCE: SUSPENSIONBRIDGE                                                                
 LARGEST INCREMENT OF DISP.         0.477       AT NODE     200075   DOF  1
   INSTANCE: SUSPENSIONBRIDGE                                                                
 LARGEST CORRECTION TO DISP.        7.707E-02   AT NODE     200075   DOF  1
   INSTANCE: SUSPENSIONBRIDGE                                                                
 ESTIMATE OF DISP.    CORRECTION    5.292E-04
 FORCE     EQUILIB. ACCEPTED BASED ON SMALL RESIDUAL AND ESTIMATED CORRECTION

 AVERAGE MOMENT                     3.133E+08   TIME AVG. MOMENT      1.489E+08
 LARGEST RESIDUAL MOMENT           -3.833E+05   AT NODE     210072   DOF  4
   INSTANCE: SUSPENSIONBRIDGE                                                                
 LARGEST INCREMENT OF ROTATION      2.082E-03   AT NODE     210075   DOF  5
   INSTANCE: SUSPENSIONBRIDGE                                                                
 LARGEST CORRECTION TO ROTATION     3.221E-04   AT NODE     210075   DOF  5
   INSTANCE: SUSPENSIONBRIDGE                                                                
          ROTATION CORRECTION TOO LARGE COMPARED TO ROTATION INCREMENT

  NUMBER OF EQUATIONS =      2088     NUMBER OF FLOATING PT. OPERATIONS =  5.11E+05

  USING THE DIRECT SOLVER WITH   4 PROCESSORS

     CHECK POINT   START OF SOLVER    

     CHECK POINT  END OF SOLVER       

       ELAPSED USER TIME (SEC)      =  0.10000    
       ELAPSED SYSTEM TIME (SEC)    =   0.0000    
       ELAPSED TOTAL CPU TIME (SEC) =  0.10000    
       ELAPSED WALLCLOCK TIME (SEC) =          0

               CONVERGENCE CHECKS FOR EQUILIBRIUM ITERATION     2


 AVERAGE FORCE                      5.483E+07   TIME AVG. FORCE       2.814E+07
 LARGEST RESIDUAL FORCE             -127.       AT NODE     110075   DOF  3
   INSTANCE: SUSPENSIONBRIDGE                                                                
 LARGEST INCREMENT OF DISP.        -0.480       AT NODE     110075   DOF  1
   INSTANCE: SUSPENSIONBRIDGE                                                                
 LARGEST CORRECTION TO DISP.       -3.220E-03   AT NODE     110075   DOF  1
   INSTANCE: SUSPENSIONBRIDGE                                                                
          THE FORCE     EQUILIBRIUM EQUATIONS HAVE CONVERGED

 AVERAGE MOMENT                     3.136E+08   TIME AVG. MOMENT      1.490E+08
 LARGEST RESIDUAL MOMENT            -734.       AT NODE     200058   DOF  6
   INSTANCE: SUSPENSIONBRIDGE                                                                
 LARGEST INCREMENT OF ROTATION     -2.096E-03   AT NODE     110075   DOF  5
   INSTANCE: SUSPENSIONBRIDGE                                                                
 LARGEST CORRECTION TO ROTATION    -1.339E-05   AT NODE     110075   DOF  5
   INSTANCE: SUSPENSIONBRIDGE                                                                
          THE MOMENT    EQUILIBRIUM EQUATIONS HAVE CONVERGED

 ITERATION SUMMARY FOR THE INCREMENT:   2 TOTAL ITERATIONS, OF WHICH
   0 ARE SEVERE DISCONTINUITY ITERATIONS AND  2 ARE EQUILIBRIUM ITERATIONS.

 TIME INCREMENT COMPLETED  8.750E-02,  FRACTION OF STEP COMPLETED   1.00    
 STEP TIME COMPLETED        1.00    ,  TOTAL TIME COMPLETED         1.00    
1

   Abaqus 3DEXPERIENCE R2017x                                  Date 10-Apr-2023   Time 13:23:16
   For use by NTNU NORGES TEKNISK NATURVITENSKAPELIGE UNIVERSITET under license from Dassault Systemes or its subsidiary.

                                                                                 
                                                                                 
 STEP    2     INCREMENT     1     STEP TIME    0.00    


                        S T E P       2     S T A T I C   A N A L Y S I S


                                                                                          

     AUTOMATIC TIME CONTROL WITH -
          A SUGGESTED INITIAL TIME INCREMENT OF                1.000E-06
          AND A TOTAL TIME PERIOD OF                            1.00    
          THE MINIMUM TIME INCREMENT ALLOWED IS                1.000E-12
          THE MAXIMUM TIME INCREMENT ALLOWED IS                 1.00    

     LINEAR EQUATION SOLVER TYPE         DIRECT SPARSE

 CONVERGENCE TOLERANCE PARAMETERS FOR FORCE    
     CRITERION FOR RESIDUAL FORCE     FOR A NONLINEAR PROBLEM          5.000E-03
     CRITERION FOR DISP.    CORRECTION IN A NONLINEAR PROBLEM          1.000E-02
     INIT. VALUE OF TIME AVG. FORCE     IS TIME AVG. FORCE     IN PREVIOUS STEP
     AVERAGE FORCE     IS TIME AVERAGE FORCE    
     ALTERNATE CRIT. FOR RESIDUAL FORCE     FOR A NONLINEAR PROBLEM    2.000E-02
     CRITERION FOR ZERO FORCE     RELATIVE TO TIME AVRG. FORCE         1.000E-05
     CRITERION FOR RESIDUAL FORCE     WHEN THERE IS ZERO FLUX          1.000E-05
     CRITERION FOR DISP.    CORRECTION WHEN THERE IS ZERO FLUX         1.000E-03
     CRITERION FOR RESIDUAL FORCE     FOR A LINEAR INCREMENT           1.000E-08
     FIELD CONVERSION RATIO                                             1.00    
     CRITERION FOR ZERO FORCE     REL. TO TIME AVRG. MAX. FORCE        1.000E-05
     CRITERION FOR ZERO DISP.    RELATIVE TO CHARACTERISTIC LENGTH     1.000E-08

 CONVERGENCE TOLERANCE PARAMETERS FOR MOMENT   
     CRITERION FOR RESIDUAL MOMENT    FOR A NONLINEAR PROBLEM          5.000E-03
     CRITERION FOR ROTATION CORRECTION IN A NONLINEAR PROBLEM          1.000E-02
     INIT. VALUE OF TIME AVG. MOMENT    IS TIME AVG. MOMENT    IN PREVIOUS STEP
     AVERAGE MOMENT    IS TIME AVERAGE MOMENT   
     ALTERNATE CRIT. FOR RESIDUAL MOMENT    FOR A NONLINEAR PROBLEM    2.000E-02
     CRITERION FOR ZERO MOMENT    RELATIVE TO TIME AVRG. MOMENT        1.000E-05
     CRITERION FOR RESIDUAL MOMENT    WHEN THERE IS ZERO FLUX          1.000E-05
     CRITERION FOR ROTATION CORRECTION WHEN THERE IS ZERO FLUX         1.000E-03
     CRITERION FOR RESIDUAL MOMENT    FOR A LINEAR INCREMENT           1.000E-08
     FIELD CONVERSION RATIO                                             1.00    
     CRITERION FOR ZERO MOMENT    REL. TO TIME AVRG. MAX. MOMENT       1.000E-05

     VOLUMETRIC STRAIN COMPATIBILITY TOLERANCE FOR HYBRID SOLIDS       1.000E-05
     AXIAL STRAIN COMPATIBILITY TOLERANCE FOR HYBRID BEAMS             1.000E-05
     TRANS. SHEAR STRAIN COMPATIBILITY TOLERANCE FOR HYBRID BEAMS      1.000E-05
     SOFT CONTACT CONSTRAINT COMPATIBILITY TOLERANCE FOR P>P0          5.000E-03
     SOFT CONTACT CONSTRAINT COMPATIBILITY TOLERANCE FOR P=0.0         0.100    
     CONTACT FORCE ERROR TOLERANCE FOR CONVERT SDI=YES                 1.00    
     DISPLACEMENT COMPATIBILITY TOLERANCE FOR DCOUP ELEMENTS           1.000E-05
     ROTATION COMPATIBILITY TOLERANCE FOR DCOUP ELEMENTS               1.000E-05

 EQUILIBRIUM WILL BE CHECKED FOR SEVERE DISCONTINUITY ITERATIONS

 TIME INCREMENTATION CONTROL PARAMETERS:
     FIRST EQUILIBRIUM ITERATION FOR CONSECUTIVE DIVERGENCE CHECK              4
     EQUILIBRIUM ITERATION AT WHICH LOG. CONVERGENCE RATE CHECK BEGINS         8
     EQUILIBRIUM ITERATION AFTER WHICH ALTERNATE RESIDUAL IS USED              9
     MAXIMUM EQUILIBRIUM ITERATIONS ALLOWED                                   16
     EQUILIBRIUM ITERATION COUNT FOR CUT-BACK IN NEXT INCREMENT               10
     MAXIMUM EQUILIB. ITERS IN TWO INCREMENTS FOR TIME INCREMENT INCREASE      4
     MAXIMUM ITERATIONS FOR SEVERE DISCONTINUITIES                            50
     MAXIMUM ATTEMPTS ALLOWED IN AN INCREMENT                                  5
     MAXIMUM DISCON. ITERS IN TWO INCREMENTS FOR TIME INCREMENT INCREASE      50
     MAXIMUM CONTACT AUGMENTATIONS FOR *SURFACE BEHAVIOR,AUGMENTED LAGRANGE   50
     CUT-BACK FACTOR AFTER DIVERGENCE                                 0.2500    
     CUT-BACK FACTOR FOR TOO SLOW CONVERGENCE                         0.5000    
     CUT-BACK FACTOR AFTER TOO MANY EQUILIBRIUM ITERATIONS            0.7500    
     CUT-BACK FACTOR AFTER TOO MANY SEVERE DISCONTINUITY ITERATIONS   0.2500    
     CUT-BACK FACTOR AFTER PROBLEMS IN ELEMENT ASSEMBLY               0.2500    
     INCREASE FACTOR AFTER TWO INCREMENTS THAT CONVERGE QUICKLY        1.500    
     MAX. TIME INCREMENT INCREASE FACTOR ALLOWED                       1.500    
     MAX. TIME INCREMENT INCREASE FACTOR ALLOWED (DYNAMICS)            1.250    
     MAX. TIME INCREMENT INCREASE FACTOR ALLOWED (DIFFUSION)           2.000    
     MINIMUM TIME INCREMENT RATIO FOR EXTRAPOLATION TO OCCUR          0.1000    
     MAX. RATIO OF TIME INCREMENT TO STABILITY LIMIT                   1.000    
     FRACTION OF STABILITY LIMIT FOR NEW TIME INCREMENT               0.9500    
     TIME INCREMENT INCREASE FACTOR BEFORE A TIME POINT                1.000    
     GLOBAL STABILIZATION CONTROL IS NOT USED

          PRINT OF INCREMENT NUMBER, TIME, ETC., EVERY    1  INCREMENTS

     THE MAXIMUM NUMBER OF INCREMENTS IN THIS STEP IS                     100

          LARGE DISPLACEMENT THEORY WILL BE USED

     LINEAR EXTRAPOLATION WILL BE USED

     CHARACTERISTIC ELEMENT LENGTH      15.7    

     DETAILS REGARDING ACTUAL SOLUTION WAVEFRONT REQUESTED

     DETAILED OUTPUT OF DIAGNOSTICS TO DATABASE REQUESTED

     PRINT OF INCREMENT NUMBER, TIME, ETC., TO THE MESSAGE FILE EVERY     1  INCREMENTS

     ELEMENT OPERATIONS WILL BE CARRIED OUT IN PARALLEL USING   4 PROCESSORS

     COLLECTING STEP CONSTRAINT INFORMATION FOR OVERCONSTRAINT CHECKS
  
     ASYNCHRONOUS OUTPUT DATABASE FRAME FLUSH STARTED
  


  INCREMENT     1 STARTS. ATTEMPT NUMBER  1, TIME INCREMENT  1.000E-06
 
     INITIAL ELEMENT LOAD BALANCE
        COMPUTE NODE   1   PROCESS    NUMBER OF ELEMENTS
                              1            768
                              2            1024
                              3            1024
                              4            889

  NUMBER OF EQUATIONS =      4716     NUMBER OF FLOATING PT. OPERATIONS =  1.30E+06

  USING THE DIRECT SOLVER WITH   4 PROCESSORS

     CHECK POINT   START OF SOLVER    

     CHECK POINT  END OF SOLVER       

       ELAPSED USER TIME (SEC)      =   0.0000    
       ELAPSED SYSTEM TIME (SEC)    =   0.0000    
       ELAPSED TOTAL CPU TIME (SEC) =   0.0000    
       ELAPSED WALLCLOCK TIME (SEC) =          0

               CONVERGENCE CHECKS FOR EQUILIBRIUM ITERATION     1


 AVERAGE FORCE                      3.411E+07   TIME AVG. FORCE       3.411E+07
 LARGEST RESIDUAL FORCE            -4.580E+05   AT NODE      10051   DOF  3
   INSTANCE: SUSPENSIONBRIDGE                                                                
 LARGEST INCREMENT OF DISP.        -0.624       AT NODE      10025   DOF  3
   INSTANCE: SUSPENSIONBRIDGE                                                                
 LARGEST CORRECTION TO DISP.       -0.624       AT NODE      10025   DOF  3
   INSTANCE: SUSPENSIONBRIDGE                                                                
          FORCE     EQUILIBRIUM NOT ACHIEVED WITHIN TOLERANCE.

 AVERAGE MOMENT                     3.136E+08   TIME AVG. MOMENT      3.136E+08
 LARGEST RESIDUAL MOMENT            -4.43       AT NODE      10002   DOF  6
   INSTANCE: SUSPENSIONBRIDGE                                                                
 LARGEST INCREMENT OF ROTATION      4.287E-03   AT NODE      10001   DOF  5
   INSTANCE: SUSPENSIONBRIDGE                                                                
 LARGEST CORRECTION TO ROTATION     4.287E-03   AT NODE      10001   DOF  5
   INSTANCE: SUSPENSIONBRIDGE                                                                
 ESTIMATE OF ROTATION CORRECTION    2.586E-05
 MOMENT    EQUILIB. ACCEPTED BASED ON SMALL RESIDUAL AND ESTIMATED CORRECTION

  NUMBER OF EQUATIONS =      4716     NUMBER OF FLOATING PT. OPERATIONS =  1.30E+06

  USING THE DIRECT SOLVER WITH   4 PROCESSORS

     CHECK POINT   START OF SOLVER    

     CHECK POINT  END OF SOLVER       

       ELAPSED USER TIME (SEC)      =  0.10000    
       ELAPSED SYSTEM TIME (SEC)    =   0.0000    
       ELAPSED TOTAL CPU TIME (SEC) =  0.10000    
       ELAPSED WALLCLOCK TIME (SEC) =          0

               CONVERGENCE CHECKS FOR EQUILIBRIUM ITERATION     2


 AVERAGE FORCE                      5.483E+07   TIME AVG. FORCE       5.483E+07
 LARGEST RESIDUAL FORCE             -91.5       AT NODE     200075   DOF  3
   INSTANCE: SUSPENSIONBRIDGE                                                                
 LARGEST INCREMENT OF DISP.        -0.620       AT NODE      10025   DOF  3
   INSTANCE: SUSPENSIONBRIDGE                                                                
 LARGEST CORRECTION TO DISP.        1.383E-02   AT NODE      20110   DOF  3
   INSTANCE: SUSPENSIONBRIDGE                                                                
          DISP.    CORRECTION TOO LARGE COMPARED TO DISP.    INCREMENT

 AVERAGE MOMENT                     3.138E+08   TIME AVG. MOMENT      3.138E+08
 LARGEST RESIDUAL MOMENT             619.       AT NODE     210072   DOF  6
   INSTANCE: SUSPENSIONBRIDGE                                                                
 LARGEST INCREMENT OF ROTATION      4.275E-03   AT NODE      10001   DOF  5
   INSTANCE: SUSPENSIONBRIDGE                                                                
 LARGEST CORRECTION TO ROTATION     3.957E-05   AT NODE      20199   DOF  5
   INSTANCE: SUSPENSIONBRIDGE                                                                
          THE MOMENT    EQUILIBRIUM EQUATIONS HAVE CONVERGED

  NUMBER OF EQUATIONS =      4716     NUMBER OF FLOATING PT. OPERATIONS =  1.30E+06

  USING THE DIRECT SOLVER WITH   4 PROCESSORS

     CHECK POINT   START OF SOLVER    

     CHECK POINT  END OF SOLVER       

       ELAPSED USER TIME (SEC)      =   0.0000    
       ELAPSED SYSTEM TIME (SEC)    =   0.0000    
       ELAPSED TOTAL CPU TIME (SEC) =   0.0000    
       ELAPSED WALLCLOCK TIME (SEC) =          0

               CONVERGENCE CHECKS FOR EQUILIBRIUM ITERATION     3


 AVERAGE FORCE                      3.875E+07   TIME AVG. FORCE       3.875E+07
 LARGEST RESIDUAL FORCE            -3.869E+04   AT NODE      10051   DOF  3
   INSTANCE: SUSPENSIONBRIDGE                                                                
 LARGEST INCREMENT OF DISP.        -0.448       AT NODE      10025   DOF  3
   INSTANCE: SUSPENSIONBRIDGE                                                                
 LARGEST CORRECTION TO DISP.        0.171       AT NODE      10024   DOF  3
   INSTANCE: SUSPENSIONBRIDGE                                                                
          DISP.    CORRECTION TOO LARGE COMPARED TO DISP.    INCREMENT

 AVERAGE MOMENT                     3.137E+08   TIME AVG. MOMENT      3.137E+08
 LARGEST RESIDUAL MOMENT             343.       AT NODE     200072   DOF  6
   INSTANCE: SUSPENSIONBRIDGE                                                                
 LARGEST INCREMENT OF ROTATION      3.097E-03   AT NODE      10001   DOF  5
   INSTANCE: SUSPENSIONBRIDGE                                                                
 LARGEST CORRECTION TO ROTATION    -1.178E-03   AT NODE      10001   DOF  5
   INSTANCE: SUSPENSIONBRIDGE                                                                
          ROTATION CORRECTION TOO LARGE COMPARED TO ROTATION INCREMENT

  NUMBER OF EQUATIONS =      4716     NUMBER OF FLOATING PT. OPERATIONS =  1.30E+06

  USING THE DIRECT SOLVER WITH   4 PROCESSORS

     CHECK POINT   START OF SOLVER    

     CHECK POINT  END OF SOLVER       

       ELAPSED USER TIME (SEC)      =  0.10000    
       ELAPSED SYSTEM TIME (SEC)    =  0.10000    
       ELAPSED TOTAL CPU TIME (SEC) =  0.20000    
       ELAPSED WALLCLOCK TIME (SEC) =          0

               CONVERGENCE CHECKS FOR EQUILIBRIUM ITERATION     4


 AVERAGE FORCE                      5.483E+07   TIME AVG. FORCE       5.483E+07
 LARGEST RESIDUAL FORCE             -19.5       AT NODE      20169   DOF  3
   INSTANCE: SUSPENSIONBRIDGE                                                                
 LARGEST INCREMENT OF DISP.        -0.440       AT NODE      10025   DOF  3
   INSTANCE: SUSPENSIONBRIDGE                                                                
 LARGEST CORRECTION TO DISP.        7.779E-03   AT NODE      10025   DOF  3
   INSTANCE: SUSPENSIONBRIDGE                                                                
 ESTIMATE OF DISP.    CORRECTION    1.654E-03
 FORCE     EQUILIB. ACCEPTED BASED ON SMALL RESIDUAL AND ESTIMATED CORRECTION

 AVERAGE MOMENT                     3.137E+08   TIME AVG. MOMENT      3.137E+08
 LARGEST RESIDUAL MOMENT             37.7       AT NODE     100072   DOF  6
   INSTANCE: SUSPENSIONBRIDGE                                                                
 LARGEST INCREMENT OF ROTATION      3.067E-03   AT NODE      10001   DOF  5
   INSTANCE: SUSPENSIONBRIDGE                                                                
 LARGEST CORRECTION TO ROTATION    -4.250E-05   AT NODE      10016   DOF  5
   INSTANCE: SUSPENSIONBRIDGE                                                                
 ESTIMATE OF ROTATION CORRECTION   -4.674E-06
 MOMENT    EQUILIB. ACCEPTED BASED ON SMALL RESIDUAL AND ESTIMATED CORRECTION

 ITERATION SUMMARY FOR THE INCREMENT:   4 TOTAL ITERATIONS, OF WHICH
   0 ARE SEVERE DISCONTINUITY ITERATIONS AND  4 ARE EQUILIBRIUM ITERATIONS.

 TIME INCREMENT COMPLETED  1.000E-06,  FRACTION OF STEP COMPLETED  1.000E-06
 STEP TIME COMPLETED       1.000E-06,  TOTAL TIME COMPLETED         1.00    


  INCREMENT     2 STARTS. ATTEMPT NUMBER  1, TIME INCREMENT  1.000E-06

  NUMBER OF EQUATIONS =      4716     NUMBER OF FLOATING PT. OPERATIONS =  1.30E+06

  USING THE DIRECT SOLVER WITH   4 PROCESSORS

     CHECK POINT   START OF SOLVER    

     CHECK POINT  END OF SOLVER       

       ELAPSED USER TIME (SEC)      =  0.10000    
       ELAPSED SYSTEM TIME (SEC)    =   0.0000    
       ELAPSED TOTAL CPU TIME (SEC) =  0.10000    
       ELAPSED WALLCLOCK TIME (SEC) =          0

               CONVERGENCE CHECKS FOR EQUILIBRIUM ITERATION     1


 AVERAGE FORCE                      3.716E+07   TIME AVG. FORCE       4.599E+07
 LARGEST RESIDUAL FORCE            -1.154E+05   AT NODE      10051   DOF  3
   INSTANCE: SUSPENSIONBRIDGE                                                                
 LARGEST INCREMENT OF DISP.        -0.141       AT NODE      20195   DOF  3
   INSTANCE: SUSPENSIONBRIDGE                                                                
 LARGEST CORRECTION TO DISP.        0.299       AT NODE      10024   DOF  3
   INSTANCE: SUSPENSIONBRIDGE                                                                
          DISP.    CORRECTION TOO LARGE COMPARED TO DISP.    INCREMENT

 AVERAGE MOMENT                     3.150E+08   TIME AVG. MOMENT      3.143E+08
 LARGEST RESIDUAL MOMENT            -226.       AT NODE     210072   DOF  6
   INSTANCE: SUSPENSIONBRIDGE                                                                
 LARGEST INCREMENT OF ROTATION     -9.861E-04   AT NODE      10219   DOF  5
   INSTANCE: SUSPENSIONBRIDGE                                                                
 LARGEST CORRECTION TO ROTATION    -2.081E-03   AT NODE      10001   DOF  5
   INSTANCE: SUSPENSIONBRIDGE                                                                
          ROTATION CORRECTION TOO LARGE COMPARED TO ROTATION INCREMENT

  NUMBER OF EQUATIONS =      4716     NUMBER OF FLOATING PT. OPERATIONS =  1.30E+06

  USING THE DIRECT SOLVER WITH   4 PROCESSORS

     CHECK POINT   START OF SOLVER    

     CHECK POINT  END OF SOLVER       

       ELAPSED USER TIME (SEC)      =  0.10000    
       ELAPSED SYSTEM TIME (SEC)    =   0.0000    
       ELAPSED TOTAL CPU TIME (SEC) =  0.10000    
       ELAPSED WALLCLOCK TIME (SEC) =          0

               CONVERGENCE CHECKS FOR EQUILIBRIUM ITERATION     2


 AVERAGE FORCE                      5.483E+07   TIME AVG. FORCE       5.483E+07
 LARGEST RESIDUAL FORCE             -16.0       AT NODE     110072   DOF  1
   INSTANCE: SUSPENSIONBRIDGE                                                                
 LARGEST INCREMENT OF DISP.        -0.139       AT NODE      10195   DOF  3
   INSTANCE: SUSPENSIONBRIDGE                                                                
 LARGEST CORRECTION TO DISP.        3.490E-03   AT NODE      10148   DOF  3
   INSTANCE: SUSPENSIONBRIDGE                                                                
 ESTIMATE OF DISP.    CORRECTION    4.836E-07
 FORCE     EQUILIB. ACCEPTED BASED ON SMALL RESIDUAL AND ESTIMATED CORRECTION

 AVERAGE MOMENT                     3.150E+08   TIME AVG. MOMENT      3.143E+08
 LARGEST RESIDUAL MOMENT             142.       AT NODE     210072   DOF  6
   INSTANCE: SUSPENSIONBRIDGE                                                                
 LARGEST INCREMENT OF ROTATION     -9.801E-04   AT NODE      10219   DOF  5
   INSTANCE: SUSPENSIONBRIDGE                                                                
 LARGEST CORRECTION TO ROTATION     1.319E-05   AT NODE      20157   DOF  5
   INSTANCE: SUSPENSIONBRIDGE                                                                
 ESTIMATE OF ROTATION CORRECTION   -8.297E-06
 MOMENT    EQUILIB. ACCEPTED BASED ON SMALL RESIDUAL AND ESTIMATED CORRECTION
          TIME INCREMENT MAY NOW INCREASE TO    1.500E-06

 ITERATION SUMMARY FOR THE INCREMENT:   2 TOTAL ITERATIONS, OF WHICH
   0 ARE SEVERE DISCONTINUITY ITERATIONS AND  2 ARE EQUILIBRIUM ITERATIONS.

 TIME INCREMENT COMPLETED  1.000E-06,  FRACTION OF STEP COMPLETED  2.000E-06
 STEP TIME COMPLETED       2.000E-06,  TOTAL TIME COMPLETED         1.00    


  INCREMENT     3 STARTS. ATTEMPT NUMBER  1, TIME INCREMENT  1.500E-06

  NUMBER OF EQUATIONS =      4716     NUMBER OF FLOATING PT. OPERATIONS =  1.30E+06

  USING THE DIRECT SOLVER WITH   4 PROCESSORS

     CHECK POINT   START OF SOLVER    

     CHECK POINT  END OF SOLVER       

       ELAPSED USER TIME (SEC)      =  0.10000    
       ELAPSED SYSTEM TIME (SEC)    =   0.0000    
       ELAPSED TOTAL CPU TIME (SEC) =  0.10000    
       ELAPSED WALLCLOCK TIME (SEC) =          0

               CONVERGENCE CHECKS FOR EQUILIBRIUM ITERATION     1


 AVERAGE FORCE                      4.483E+07   TIME AVG. FORCE       5.150E+07
 LARGEST RESIDUAL FORCE            -2.567E+03   AT NODE      20051   DOF  3
   INSTANCE: SUSPENSIONBRIDGE                                                                
 LARGEST INCREMENT OF DISP.        -0.132       AT NODE      10194   DOF  3
   INSTANCE: SUSPENSIONBRIDGE                                                                
 LARGEST CORRECTION TO DISP.        7.636E-02   AT NODE      10024   DOF  3
   INSTANCE: SUSPENSIONBRIDGE                                                                
          DISP.    CORRECTION TOO LARGE COMPARED TO DISP.    INCREMENT

 AVERAGE MOMENT                     3.151E+08   TIME AVG. MOMENT      3.146E+08
 LARGEST RESIDUAL MOMENT             73.6       AT NODE     110072   DOF  6
   INSTANCE: SUSPENSIONBRIDGE                                                                
 LARGEST INCREMENT OF ROTATION     -9.468E-04   AT NODE      20219   DOF  5
   INSTANCE: SUSPENSIONBRIDGE                                                                
 LARGEST CORRECTION TO ROTATION    -5.233E-04   AT NODE      20001   DOF  5
   INSTANCE: SUSPENSIONBRIDGE                                                                
          ROTATION CORRECTION TOO LARGE COMPARED TO ROTATION INCREMENT

  NUMBER OF EQUATIONS =      4716     NUMBER OF FLOATING PT. OPERATIONS =  1.30E+06

  USING THE DIRECT SOLVER WITH   4 PROCESSORS

     CHECK POINT   START OF SOLVER    

     CHECK POINT  END OF SOLVER       

       ELAPSED USER TIME (SEC)      =   0.0000    
       ELAPSED SYSTEM TIME (SEC)    =   0.0000    
       ELAPSED TOTAL CPU TIME (SEC) =   0.0000    
       ELAPSED WALLCLOCK TIME (SEC) =          1

               CONVERGENCE CHECKS FOR EQUILIBRIUM ITERATION     2


 AVERAGE FORCE                      5.483E+07   TIME AVG. FORCE       5.483E+07
 LARGEST RESIDUAL FORCE             -5.71       AT NODE      10169   DOF  3
   INSTANCE: SUSPENSIONBRIDGE                                                                
 LARGEST INCREMENT OF DISP.        -0.136       AT NODE      10195   DOF  3
   INSTANCE: SUSPENSIONBRIDGE                                                                
 LARGEST CORRECTION TO DISP.        5.033E-03   AT NODE      10110   DOF  3
   INSTANCE: SUSPENSIONBRIDGE                                                                
 ESTIMATE OF DISP.    CORRECTION    1.120E-05
 FORCE     EQUILIB. ACCEPTED BASED ON SMALL RESIDUAL AND ESTIMATED CORRECTION

 AVERAGE MOMENT                     3.151E+08   TIME AVG. MOMENT      3.146E+08
 LARGEST RESIDUAL MOMENT             17.2       AT NODE     100072   DOF  6
   INSTANCE: SUSPENSIONBRIDGE                                                                
 LARGEST INCREMENT OF ROTATION     -9.673E-04   AT NODE      20219   DOF  5
   INSTANCE: SUSPENSIONBRIDGE                                                                
 LARGEST CORRECTION TO ROTATION    -2.071E-05   AT NODE      10213   DOF  5
   INSTANCE: SUSPENSIONBRIDGE                                                                
 ESTIMATE OF ROTATION CORRECTION   -4.841E-06
 MOMENT    EQUILIB. ACCEPTED BASED ON SMALL RESIDUAL AND ESTIMATED CORRECTION
          TIME INCREMENT MAY NOW INCREASE TO    2.250E-06

 ITERATION SUMMARY FOR THE INCREMENT:   2 TOTAL ITERATIONS, OF WHICH
   0 ARE SEVERE DISCONTINUITY ITERATIONS AND  2 ARE EQUILIBRIUM ITERATIONS.

 TIME INCREMENT COMPLETED  1.500E-06,  FRACTION OF STEP COMPLETED  3.500E-06
 STEP TIME COMPLETED       3.500E-06,  TOTAL TIME COMPLETED         1.00    


  INCREMENT     4 STARTS. ATTEMPT NUMBER  1, TIME INCREMENT  2.250E-06

  NUMBER OF EQUATIONS =      4716     NUMBER OF FLOATING PT. OPERATIONS =  1.30E+06

  USING THE DIRECT SOLVER WITH   4 PROCESSORS

     CHECK POINT   START OF SOLVER    

     CHECK POINT  END OF SOLVER       

       ELAPSED USER TIME (SEC)      =  0.10000    
       ELAPSED SYSTEM TIME (SEC)    =  0.10000    
       ELAPSED TOTAL CPU TIME (SEC) =  0.20000    
       ELAPSED WALLCLOCK TIME (SEC) =          0

               CONVERGENCE CHECKS FOR EQUILIBRIUM ITERATION     1


 AVERAGE FORCE                      4.396E+07   TIME AVG. FORCE       5.211E+07
 LARGEST RESIDUAL FORCE            -5.555E+03   AT NODE      10169   DOF  3
   INSTANCE: SUSPENSIONBRIDGE                                                                
 LARGEST INCREMENT OF DISP.        -0.156       AT NODE      20025   DOF  3
   INSTANCE: SUSPENSIONBRIDGE                                                                
 LARGEST CORRECTION TO DISP.        7.030E-02   AT NODE      10110   DOF  3
   INSTANCE: SUSPENSIONBRIDGE                                                                
          DISP.    CORRECTION TOO LARGE COMPARED TO DISP.    INCREMENT

 AVERAGE MOMENT                     3.153E+08   TIME AVG. MOMENT      3.148E+08
 LARGEST RESIDUAL MOMENT            -29.0       AT NODE     100072   DOF  6
   INSTANCE: SUSPENSIONBRIDGE                                                                
 LARGEST INCREMENT OF ROTATION      1.158E-03   AT NODE      10001   DOF  5
   INSTANCE: SUSPENSIONBRIDGE                                                                
 LARGEST CORRECTION TO ROTATION    -3.244E-04   AT NODE      10170   DOF  5
   INSTANCE: SUSPENSIONBRIDGE                                                                
          ROTATION CORRECTION TOO LARGE COMPARED TO ROTATION INCREMENT

  NUMBER OF EQUATIONS =      4716     NUMBER OF FLOATING PT. OPERATIONS =  1.30E+06

  USING THE DIRECT SOLVER WITH   4 PROCESSORS

     CHECK POINT   START OF SOLVER    

     CHECK POINT  END OF SOLVER       

       ELAPSED USER TIME (SEC)      =  0.10000    
       ELAPSED SYSTEM TIME (SEC)    =   0.0000    
       ELAPSED TOTAL CPU TIME (SEC) =  0.10000    
       ELAPSED WALLCLOCK TIME (SEC) =          0

               CONVERGENCE CHECKS FOR EQUILIBRIUM ITERATION     2


 AVERAGE FORCE                      4.744E+07   TIME AVG. FORCE       5.298E+07
 LARGEST RESIDUAL FORCE             -34.7       AT NODE      10169   DOF  3
   INSTANCE: SUSPENSIONBRIDGE                                                                
 LARGEST INCREMENT OF DISP.        -0.160       AT NODE      10025   DOF  3
   INSTANCE: SUSPENSIONBRIDGE                                                                
 LARGEST CORRECTION TO DISP.       -7.870E-03   AT NODE      20110   DOF  3
   INSTANCE: SUSPENSIONBRIDGE                                                                
 ESTIMATE OF DISP.    CORRECTION   -4.909E-05
 FORCE     EQUILIB. ACCEPTED BASED ON SMALL RESIDUAL AND ESTIMATED CORRECTION

 AVERAGE MOMENT                     3.153E+08   TIME AVG. MOMENT      3.148E+08
 LARGEST RESIDUAL MOMENT            -14.7       AT NODE     110072   DOF  6
   INSTANCE: SUSPENSIONBRIDGE                                                                
 LARGEST INCREMENT OF ROTATION      1.177E-03   AT NODE      10001   DOF  5
   INSTANCE: SUSPENSIONBRIDGE                                                                
 LARGEST CORRECTION TO ROTATION     2.617E-05   AT NODE      20172   DOF  5
   INSTANCE: SUSPENSIONBRIDGE                                                                
          ROTATION CORRECTION TOO LARGE COMPARED TO ROTATION INCREMENT

  NUMBER OF EQUATIONS =      4716     NUMBER OF FLOATING PT. OPERATIONS =  1.30E+06

  USING THE DIRECT SOLVER WITH   4 PROCESSORS

     CHECK POINT   START OF SOLVER    

     CHECK POINT  END OF SOLVER       

       ELAPSED USER TIME (SEC)      =  0.10000    
       ELAPSED SYSTEM TIME (SEC)    =   0.0000    
       ELAPSED TOTAL CPU TIME (SEC) =  0.10000    
       ELAPSED WALLCLOCK TIME (SEC) =          0

               CONVERGENCE CHECKS FOR EQUILIBRIUM ITERATION     3


 AVERAGE FORCE                      4.744E+07   TIME AVG. FORCE       5.298E+07
 LARGEST RESIDUAL FORCE             -17.9       AT NODE      20169   DOF  3
   INSTANCE: SUSPENSIONBRIDGE                                                                
 LARGEST INCREMENT OF DISP.        -0.161       AT NODE      20195   DOF  3
   INSTANCE: SUSPENSIONBRIDGE                                                                
 LARGEST CORRECTION TO DISP.       -7.632E-03   AT NODE      10110   DOF  3
   INSTANCE: SUSPENSIONBRIDGE                                                                
          DISP.    CORRECTION TOO LARGE COMPARED TO DISP.    INCREMENT

 AVERAGE MOMENT                     3.153E+08   TIME AVG. MOMENT      3.148E+08
 LARGEST RESIDUAL MOMENT             2.89       AT NODE     100072   DOF  6
   INSTANCE: SUSPENSIONBRIDGE                                                                
 LARGEST INCREMENT OF ROTATION      1.182E-03   AT NODE      10001   DOF  5
   INSTANCE: SUSPENSIONBRIDGE                                                                
 LARGEST CORRECTION TO ROTATION     2.347E-05   AT NODE      10165   DOF  5
   INSTANCE: SUSPENSIONBRIDGE                                                                
          THE MOMENT    EQUILIBRIUM EQUATIONS HAVE CONVERGED

  NUMBER OF EQUATIONS =      4716     NUMBER OF FLOATING PT. OPERATIONS =  1.30E+06

  USING THE DIRECT SOLVER WITH   4 PROCESSORS

     CHECK POINT   START OF SOLVER    

     CHECK POINT  END OF SOLVER       

       ELAPSED USER TIME (SEC)      =  0.10000    
       ELAPSED SYSTEM TIME (SEC)    =  0.10000    
       ELAPSED TOTAL CPU TIME (SEC) =  0.20000    
       ELAPSED WALLCLOCK TIME (SEC) =          0

               CONVERGENCE CHECKS FOR EQUILIBRIUM ITERATION     4


 AVERAGE FORCE                      4.744E+07   TIME AVG. FORCE       5.298E+07
 LARGEST RESIDUAL FORCE             0.192       AT NODE     100005   DOF  1
   INSTANCE: SUSPENSIONBRIDGE                                                                
 LARGEST INCREMENT OF DISP.        -0.161       AT NODE      20195   DOF  3
   INSTANCE: SUSPENSIONBRIDGE                                                                
 LARGEST CORRECTION TO DISP.       -8.065E-05   AT NODE      10110   DOF  3
   INSTANCE: SUSPENSIONBRIDGE                                                                
          THE FORCE     EQUILIBRIUM EQUATIONS HAVE CONVERGED

 AVERAGE MOMENT                     3.153E+08   TIME AVG. MOMENT      3.148E+08
 LARGEST RESIDUAL MOMENT            -1.06       AT NODE     100005   DOF  6
   INSTANCE: SUSPENSIONBRIDGE                                                                
 LARGEST INCREMENT OF ROTATION      1.182E-03   AT NODE      10001   DOF  5
   INSTANCE: SUSPENSIONBRIDGE                                                                
 LARGEST CORRECTION TO ROTATION    -2.482E-07   AT NODE      10132   DOF  5
   INSTANCE: SUSPENSIONBRIDGE                                                                
          THE MOMENT    EQUILIBRIUM EQUATIONS HAVE CONVERGED
          TIME INCREMENT MAY NOW INCREASE TO    3.375E-06

 ITERATION SUMMARY FOR THE INCREMENT:   4 TOTAL ITERATIONS, OF WHICH
   0 ARE SEVERE DISCONTINUITY ITERATIONS AND  4 ARE EQUILIBRIUM ITERATIONS.

 TIME INCREMENT COMPLETED  2.250E-06,  FRACTION OF STEP COMPLETED  5.750E-06
 STEP TIME COMPLETED       5.750E-06,  TOTAL TIME COMPLETED         1.00    


  INCREMENT     5 STARTS. ATTEMPT NUMBER  1, TIME INCREMENT  3.375E-06

  NUMBER OF EQUATIONS =      4716     NUMBER OF FLOATING PT. OPERATIONS =  1.30E+06

  USING THE DIRECT SOLVER WITH   4 PROCESSORS

     CHECK POINT   START OF SOLVER    

     CHECK POINT  END OF SOLVER       

       ELAPSED USER TIME (SEC)      =  0.20000    
       ELAPSED SYSTEM TIME (SEC)    =   0.0000    
       ELAPSED TOTAL CPU TIME (SEC) =  0.20000    
       ELAPSED WALLCLOCK TIME (SEC) =          0

               CONVERGENCE CHECKS FOR EQUILIBRIUM ITERATION     1


 AVERAGE FORCE                      4.162E+07   TIME AVG. FORCE       5.071E+07
 LARGEST RESIDUAL FORCE            -6.931E+03   AT NODE      20051   DOF  3
   INSTANCE: SUSPENSIONBRIDGE                                                                
 LARGEST INCREMENT OF DISP.        -0.158       AT NODE      10195   DOF  3
   INSTANCE: SUSPENSIONBRIDGE                                                                
 LARGEST CORRECTION TO DISP.        8.231E-02   AT NODE      20195   DOF  3
   INSTANCE: SUSPENSIONBRIDGE                                                                
          DISP.    CORRECTION TOO LARGE COMPARED TO DISP.    INCREMENT

 AVERAGE MOMENT                     3.154E+08   TIME AVG. MOMENT      3.149E+08
 LARGEST RESIDUAL MOMENT            -139.       AT NODE     100072   DOF  6
   INSTANCE: SUSPENSIONBRIDGE                                                                
 LARGEST INCREMENT OF ROTATION      1.186E-03   AT NODE      20001   DOF  5
   INSTANCE: SUSPENSIONBRIDGE                                                                
 LARGEST CORRECTION TO ROTATION    -5.865E-04   AT NODE      10001   DOF  5
   INSTANCE: SUSPENSIONBRIDGE                                                                
          ROTATION CORRECTION TOO LARGE COMPARED TO ROTATION INCREMENT

  NUMBER OF EQUATIONS =      4716     NUMBER OF FLOATING PT. OPERATIONS =  1.30E+06

  USING THE DIRECT SOLVER WITH   4 PROCESSORS

     CHECK POINT   START OF SOLVER    

     CHECK POINT  END OF SOLVER       

       ELAPSED USER TIME (SEC)      =   0.0000    
       ELAPSED SYSTEM TIME (SEC)    =  0.10000    
       ELAPSED TOTAL CPU TIME (SEC) =  0.10000    
       ELAPSED WALLCLOCK TIME (SEC) =          0

               CONVERGENCE CHECKS FOR EQUILIBRIUM ITERATION     2


 AVERAGE FORCE                      4.181E+07   TIME AVG. FORCE       5.075E+07
 LARGEST RESIDUAL FORCE             -24.7       AT NODE      10051   DOF  3
   INSTANCE: SUSPENSIONBRIDGE                                                                
 LARGEST INCREMENT OF DISP.        -0.163       AT NODE      10195   DOF  3
   INSTANCE: SUSPENSIONBRIDGE                                                                
 LARGEST CORRECTION TO DISP.        6.686E-03   AT NODE      10110   DOF  3
   INSTANCE: SUSPENSIONBRIDGE                                                                
 ESTIMATE OF DISP.    CORRECTION    2.381E-05
 FORCE     EQUILIB. ACCEPTED BASED ON SMALL RESIDUAL AND ESTIMATED CORRECTION

 AVERAGE MOMENT                     3.154E+08   TIME AVG. MOMENT      3.149E+08
 LARGEST RESIDUAL MOMENT             26.8       AT NODE     100072   DOF  6
   INSTANCE: SUSPENSIONBRIDGE                                                                
 LARGEST INCREMENT OF ROTATION      1.213E-03   AT NODE      20001   DOF  5
   INSTANCE: SUSPENSIONBRIDGE                                                                
 LARGEST CORRECTION TO ROTATION     2.716E-05   AT NODE      10006   DOF  5
   INSTANCE: SUSPENSIONBRIDGE                                                                
          ROTATION CORRECTION TOO LARGE COMPARED TO ROTATION INCREMENT

  NUMBER OF EQUATIONS =      4716     NUMBER OF FLOATING PT. OPERATIONS =  1.30E+06

  USING THE DIRECT SOLVER WITH   4 PROCESSORS

     CHECK POINT   START OF SOLVER    

     CHECK POINT  END OF SOLVER       

       ELAPSED USER TIME (SEC)      =  0.10000    
       ELAPSED SYSTEM TIME (SEC)    =   0.0000    
       ELAPSED TOTAL CPU TIME (SEC) =  0.10000    
       ELAPSED WALLCLOCK TIME (SEC) =          0

               CONVERGENCE CHECKS FOR EQUILIBRIUM ITERATION     3


 AVERAGE FORCE                      4.181E+07   TIME AVG. FORCE       5.075E+07
 LARGEST RESIDUAL FORCE             -6.02       AT NODE      20169   DOF  3
   INSTANCE: SUSPENSIONBRIDGE                                                                
 LARGEST INCREMENT OF DISP.        -0.165       AT NODE      10195   DOF  3
   INSTANCE: SUSPENSIONBRIDGE                                                                
 LARGEST CORRECTION TO DISP.        1.989E-03   AT NODE      10110   DOF  3
   INSTANCE: SUSPENSIONBRIDGE                                                                
 ESTIMATE OF DISP.    CORRECTION    4.854E-04
 FORCE     EQUILIB. ACCEPTED BASED ON SMALL RESIDUAL AND ESTIMATED CORRECTION

 AVERAGE MOMENT                     3.154E+08   TIME AVG. MOMENT      3.149E+08
 LARGEST RESIDUAL MOMENT            -6.74       AT NODE     200072   DOF  6
   INSTANCE: SUSPENSIONBRIDGE                                                                
 LARGEST INCREMENT OF ROTATION      1.233E-03   AT NODE      20001   DOF  5
   INSTANCE: SUSPENSIONBRIDGE                                                                
 LARGEST CORRECTION TO ROTATION     1.947E-05   AT NODE      10001   DOF  5
   INSTANCE: SUSPENSIONBRIDGE                                                                
 ESTIMATE OF ROTATION CORRECTION   -4.904E-06
 MOMENT    EQUILIB. ACCEPTED BASED ON SMALL RESIDUAL AND ESTIMATED CORRECTION
          TIME INCREMENT MAY NOW INCREASE TO    5.062E-06

 ITERATION SUMMARY FOR THE INCREMENT:   3 TOTAL ITERATIONS, OF WHICH
   0 ARE SEVERE DISCONTINUITY ITERATIONS AND  3 ARE EQUILIBRIUM ITERATIONS.

 TIME INCREMENT COMPLETED  3.375E-06,  FRACTION OF STEP COMPLETED  9.125E-06
 STEP TIME COMPLETED       9.125E-06,  TOTAL TIME COMPLETED         1.00    


  INCREMENT     6 STARTS. ATTEMPT NUMBER  1, TIME INCREMENT  5.062E-06

  NUMBER OF EQUATIONS =      4716     NUMBER OF FLOATING PT. OPERATIONS =  1.30E+06

  USING THE DIRECT SOLVER WITH   4 PROCESSORS

     CHECK POINT   START OF SOLVER    

     CHECK POINT  END OF SOLVER       

       ELAPSED USER TIME (SEC)      =  0.10000    
       ELAPSED SYSTEM TIME (SEC)    =   0.0000    
       ELAPSED TOTAL CPU TIME (SEC) =  0.10000    
       ELAPSED WALLCLOCK TIME (SEC) =          1

               CONVERGENCE CHECKS FOR EQUILIBRIUM ITERATION     1


 AVERAGE FORCE                      4.162E+07   TIME AVG. FORCE       4.922E+07
 LARGEST RESIDUAL FORCE            -6.461E+03   AT NODE      10051   DOF  3
   INSTANCE: SUSPENSIONBRIDGE                                                                
 LARGEST INCREMENT OF DISP.        -0.170       AT NODE      20194   DOF  3
   INSTANCE: SUSPENSIONBRIDGE                                                                
 LARGEST CORRECTION TO DISP.        7.796E-02   AT NODE      10195   DOF  3
   INSTANCE: SUSPENSIONBRIDGE                                                                
          DISP.    CORRECTION TOO LARGE COMPARED TO DISP.    INCREMENT

 AVERAGE MOMENT                     3.156E+08   TIME AVG. MOMENT      3.150E+08
 LARGEST RESIDUAL MOMENT             157.       AT NODE     200072   DOF  6
   INSTANCE: SUSPENSIONBRIDGE                                                                
 LARGEST INCREMENT OF ROTATION      1.296E-03   AT NODE      10001   DOF  5
   INSTANCE: SUSPENSIONBRIDGE                                                                
 LARGEST CORRECTION TO ROTATION    -5.533E-04   AT NODE      20001   DOF  5
   INSTANCE: SUSPENSIONBRIDGE                                                                
          ROTATION CORRECTION TOO LARGE COMPARED TO ROTATION INCREMENT

  NUMBER OF EQUATIONS =      4716     NUMBER OF FLOATING PT. OPERATIONS =  1.30E+06

  USING THE DIRECT SOLVER WITH   4 PROCESSORS

     CHECK POINT   START OF SOLVER    

     CHECK POINT  END OF SOLVER       

       ELAPSED USER TIME (SEC)      =  0.10000    
       ELAPSED SYSTEM TIME (SEC)    =   0.0000    
       ELAPSED TOTAL CPU TIME (SEC) =  0.10000    
       ELAPSED WALLCLOCK TIME (SEC) =          0

               CONVERGENCE CHECKS FOR EQUILIBRIUM ITERATION     2


 AVERAGE FORCE                      4.181E+07   TIME AVG. FORCE       4.926E+07
 LARGEST RESIDUAL FORCE             -29.4       AT NODE      10051   DOF  3
   INSTANCE: SUSPENSIONBRIDGE                                                                
 LARGEST INCREMENT OF DISP.        -0.175       AT NODE      20194   DOF  3
   INSTANCE: SUSPENSIONBRIDGE                                                                
 LARGEST CORRECTION TO DISP.        9.760E-03   AT NODE      10110   DOF  3
   INSTANCE: SUSPENSIONBRIDGE                                                                
 ESTIMATE OF DISP.    CORRECTION    4.445E-05
 FORCE     EQUILIB. ACCEPTED BASED ON SMALL RESIDUAL AND ESTIMATED CORRECTION

 AVERAGE MOMENT                     3.156E+08   TIME AVG. MOMENT      3.150E+08
 LARGEST RESIDUAL MOMENT             29.8       AT NODE     100072   DOF  6
   INSTANCE: SUSPENSIONBRIDGE                                                                
 LARGEST INCREMENT OF ROTATION      1.325E-03   AT NODE      10001   DOF  5
   INSTANCE: SUSPENSIONBRIDGE                                                                
 LARGEST CORRECTION TO ROTATION    -2.941E-05   AT NODE      10092   DOF  5
   INSTANCE: SUSPENSIONBRIDGE                                                                
          ROTATION CORRECTION TOO LARGE COMPARED TO ROTATION INCREMENT

  NUMBER OF EQUATIONS =      4716     NUMBER OF FLOATING PT. OPERATIONS =  1.30E+06

  USING THE DIRECT SOLVER WITH   4 PROCESSORS

     CHECK POINT   START OF SOLVER    

     CHECK POINT  END OF SOLVER       

       ELAPSED USER TIME (SEC)      =  0.10000    
       ELAPSED SYSTEM TIME (SEC)    =   0.0000    
       ELAPSED TOTAL CPU TIME (SEC) =  0.10000    
       ELAPSED WALLCLOCK TIME (SEC) =          0

               CONVERGENCE CHECKS FOR EQUILIBRIUM ITERATION     3


 AVERAGE FORCE                      4.181E+07   TIME AVG. FORCE       4.926E+07
 LARGEST RESIDUAL FORCE             -3.05       AT NODE      10169   DOF  3
   INSTANCE: SUSPENSIONBRIDGE                                                                
 LARGEST INCREMENT OF DISP.        -0.176       AT NODE      10194   DOF  3
   INSTANCE: SUSPENSIONBRIDGE                                                                
 LARGEST CORRECTION TO DISP.        3.255E-03   AT NODE      10110   DOF  3
   INSTANCE: SUSPENSIONBRIDGE                                                                
 ESTIMATE OF DISP.    CORRECTION    3.377E-04
 FORCE     EQUILIB. ACCEPTED BASED ON SMALL RESIDUAL AND ESTIMATED CORRECTION

 AVERAGE MOMENT                     3.156E+08   TIME AVG. MOMENT      3.150E+08
 LARGEST RESIDUAL MOMENT             5.64       AT NODE     210072   DOF  6
   INSTANCE: SUSPENSIONBRIDGE                                                                
 LARGEST INCREMENT OF ROTATION      1.339E-03   AT NODE      10001   DOF  5
   INSTANCE: SUSPENSIONBRIDGE                                                                
 LARGEST CORRECTION TO ROTATION     1.426E-05   AT NODE      20001   DOF  5
   INSTANCE: SUSPENSIONBRIDGE                                                                
 ESTIMATE OF ROTATION CORRECTION    2.702E-06
 MOMENT    EQUILIB. ACCEPTED BASED ON SMALL RESIDUAL AND ESTIMATED CORRECTION
          TIME INCREMENT MAY NOW INCREASE TO    7.594E-06

 ITERATION SUMMARY FOR THE INCREMENT:   3 TOTAL ITERATIONS, OF WHICH
   0 ARE SEVERE DISCONTINUITY ITERATIONS AND  3 ARE EQUILIBRIUM ITERATIONS.

 TIME INCREMENT COMPLETED  5.062E-06,  FRACTION OF STEP COMPLETED  1.419E-05
 STEP TIME COMPLETED       1.419E-05,  TOTAL TIME COMPLETED         1.00    


  INCREMENT     7 STARTS. ATTEMPT NUMBER  1, TIME INCREMENT  7.594E-06

  NUMBER OF EQUATIONS =      4716     NUMBER OF FLOATING PT. OPERATIONS =  1.30E+06

  USING THE DIRECT SOLVER WITH   4 PROCESSORS

     CHECK POINT   START OF SOLVER    

     CHECK POINT  END OF SOLVER       

       ELAPSED USER TIME (SEC)      =  0.10000    
       ELAPSED SYSTEM TIME (SEC)    =   0.0000    
       ELAPSED TOTAL CPU TIME (SEC) =  0.10000    
       ELAPSED WALLCLOCK TIME (SEC) =          0

               CONVERGENCE CHECKS FOR EQUILIBRIUM ITERATION     1


 AVERAGE FORCE                      3.917E+07   TIME AVG. FORCE       4.782E+07
 LARGEST RESIDUAL FORCE            -6.858E+03   AT NODE      20051   DOF  3
   INSTANCE: SUSPENSIONBRIDGE                                                                
 LARGEST INCREMENT OF DISP.        -0.184       AT NODE      10194   DOF  3
   INSTANCE: SUSPENSIONBRIDGE                                                                
 LARGEST CORRECTION TO DISP.        8.044E-02   AT NODE      10195   DOF  3
   INSTANCE: SUSPENSIONBRIDGE                                                                
          DISP.    CORRECTION TOO LARGE COMPARED TO DISP.    INCREMENT

 AVERAGE MOMENT                     3.159E+08   TIME AVG. MOMENT      3.152E+08
 LARGEST RESIDUAL MOMENT            -196.       AT NODE     210072   DOF  6
   INSTANCE: SUSPENSIONBRIDGE                                                                
 LARGEST INCREMENT OF ROTATION     -1.427E-03   AT NODE      20219   DOF  5
   INSTANCE: SUSPENSIONBRIDGE                                                                
 LARGEST CORRECTION TO ROTATION    -5.819E-04   AT NODE      20001   DOF  5
   INSTANCE: SUSPENSIONBRIDGE                                                                
          ROTATION CORRECTION TOO LARGE COMPARED TO ROTATION INCREMENT

  NUMBER OF EQUATIONS =      4716     NUMBER OF FLOATING PT. OPERATIONS =  1.30E+06

  USING THE DIRECT SOLVER WITH   4 PROCESSORS

     CHECK POINT   START OF SOLVER    

     CHECK POINT  END OF SOLVER       

       ELAPSED USER TIME (SEC)      =  0.10000    
       ELAPSED SYSTEM TIME (SEC)    =   0.0000    
       ELAPSED TOTAL CPU TIME (SEC) =  0.10000    
       ELAPSED WALLCLOCK TIME (SEC) =          0

               CONVERGENCE CHECKS FOR EQUILIBRIUM ITERATION     2


 AVERAGE FORCE                      4.181E+07   TIME AVG. FORCE       4.819E+07
 LARGEST RESIDUAL FORCE             -33.8       AT NODE      10051   DOF  3
   INSTANCE: SUSPENSIONBRIDGE                                                                
 LARGEST INCREMENT OF DISP.        -0.190       AT NODE      20194   DOF  3
   INSTANCE: SUSPENSIONBRIDGE                                                                
 LARGEST CORRECTION TO DISP.        1.333E-02   AT NODE      20110   DOF  3
   INSTANCE: SUSPENSIONBRIDGE                                                                
 ESTIMATE OF DISP.    CORRECTION    6.572E-05
 FORCE     EQUILIB. ACCEPTED BASED ON SMALL RESIDUAL AND ESTIMATED CORRECTION

 AVERAGE MOMENT                     3.159E+08   TIME AVG. MOMENT      3.152E+08
 LARGEST RESIDUAL MOMENT            -35.9       AT NODE     200072   DOF  6
   INSTANCE: SUSPENSIONBRIDGE                                                                
 LARGEST INCREMENT OF ROTATION     -1.459E-03   AT NODE      20219   DOF  5
   INSTANCE: SUSPENSIONBRIDGE                                                                
 LARGEST CORRECTION TO ROTATION    -3.718E-05   AT NODE      20090   DOF  5
   INSTANCE: SUSPENSIONBRIDGE                                                                
          ROTATION CORRECTION TOO LARGE COMPARED TO ROTATION INCREMENT

  NUMBER OF EQUATIONS =      4716     NUMBER OF FLOATING PT. OPERATIONS =  1.30E+06

  USING THE DIRECT SOLVER WITH   4 PROCESSORS

     CHECK POINT   START OF SOLVER    

     CHECK POINT  END OF SOLVER       

       ELAPSED USER TIME (SEC)      =   0.0000    
       ELAPSED SYSTEM TIME (SEC)    =   0.0000    
       ELAPSED TOTAL CPU TIME (SEC) =   0.0000    
       ELAPSED WALLCLOCK TIME (SEC) =          0

               CONVERGENCE CHECKS FOR EQUILIBRIUM ITERATION     3


 AVERAGE FORCE                      4.181E+07   TIME AVG. FORCE       4.819E+07
 LARGEST RESIDUAL FORCE              2.33       AT NODE      20060   DOF  1
   INSTANCE: SUSPENSIONBRIDGE                                                                
 LARGEST INCREMENT OF DISP.        -0.191       AT NODE      20194   DOF  3
   INSTANCE: SUSPENSIONBRIDGE                                                                
 LARGEST CORRECTION TO DISP.        4.630E-03   AT NODE      20110   DOF  3
   INSTANCE: SUSPENSIONBRIDGE                                                                
 ESTIMATE OF DISP.    CORRECTION   -3.187E-04
 FORCE     EQUILIB. ACCEPTED BASED ON SMALL RESIDUAL AND ESTIMATED CORRECTION

 AVERAGE MOMENT                     3.159E+08   TIME AVG. MOMENT      3.152E+08
 LARGEST RESIDUAL MOMENT             5.84       AT NODE     210072   DOF  6
   INSTANCE: SUSPENSIONBRIDGE                                                                
 LARGEST INCREMENT OF ROTATION     -1.473E-03   AT NODE      10219   DOF  5
   INSTANCE: SUSPENSIONBRIDGE                                                                
 LARGEST CORRECTION TO ROTATION    -1.675E-05   AT NODE      10089   DOF  5
   INSTANCE: SUSPENSIONBRIDGE                                                                
 ESTIMATE OF ROTATION CORRECTION    2.723E-06
 MOMENT    EQUILIB. ACCEPTED BASED ON SMALL RESIDUAL AND ESTIMATED CORRECTION
          TIME INCREMENT MAY NOW INCREASE TO    1.139E-05

 ITERATION SUMMARY FOR THE INCREMENT:   3 TOTAL ITERATIONS, OF WHICH
   0 ARE SEVERE DISCONTINUITY ITERATIONS AND  3 ARE EQUILIBRIUM ITERATIONS.

 TIME INCREMENT COMPLETED  7.594E-06,  FRACTION OF STEP COMPLETED  2.178E-05
 STEP TIME COMPLETED       2.178E-05,  TOTAL TIME COMPLETED         1.00    


  INCREMENT     8 STARTS. ATTEMPT NUMBER  1, TIME INCREMENT  1.139E-05

  NUMBER OF EQUATIONS =      4716     NUMBER OF FLOATING PT. OPERATIONS =  1.30E+06

  USING THE DIRECT SOLVER WITH   4 PROCESSORS

     CHECK POINT   START OF SOLVER    

     CHECK POINT  END OF SOLVER       

       ELAPSED USER TIME (SEC)      =  0.10000    
       ELAPSED SYSTEM TIME (SEC)    =  0.10000    
       ELAPSED TOTAL CPU TIME (SEC) =  0.20000    
       ELAPSED WALLCLOCK TIME (SEC) =          0

[...]
       ELAPSED SYSTEM TIME (SEC)    =  0.10000    
       ELAPSED TOTAL CPU TIME (SEC) =  0.30000    
       ELAPSED WALLCLOCK TIME (SEC) =          0

               CONVERGENCE CHECKS FOR EQUILIBRIUM ITERATION     1


 AVERAGE FORCE                      4.788E+07   TIME AVG. FORCE       4.779E+07
 LARGEST RESIDUAL FORCE             0.267       AT NODE     110005   DOF  1
   INSTANCE: SUSPENSIONBRIDGE                                                                
 LARGEST INCREMENT OF DISP.        -5.929E-04   AT NODE      20106   DOF  3
   INSTANCE: SUSPENSIONBRIDGE                                                                
 LARGEST CORRECTION TO DISP.        8.568E-08   AT NODE      10114   DOF  3
   INSTANCE: SUSPENSIONBRIDGE                                                                
          THE FORCE     EQUILIBRIUM RESPONSE WAS LINEAR IN THIS INCREMENT

 AVERAGE MOMENT                     1.540E+07   TIME AVG. MOMENT      1.566E+07
 LARGEST RESIDUAL MOMENT             1.46       AT NODE     110005   DOF  6
   INSTANCE: SUSPENSIONBRIDGE                                                                
 LARGEST INCREMENT OF ROTATION     -1.972E-05   AT NODE      20115   DOF  5
   INSTANCE: SUSPENSIONBRIDGE                                                                
 LARGEST CORRECTION TO ROTATION    -4.326E-09   AT NODE      11327   DOF  4
   INSTANCE: SUSPENSIONBRIDGE                                                                
          THE MOMENT    EQUILIBRIUM EQUATIONS HAVE CONVERGED

 ITERATION SUMMARY FOR THE INCREMENT:   1 TOTAL ITERATIONS, OF WHICH
   0 ARE SEVERE DISCONTINUITY ITERATIONS AND  1 ARE EQUILIBRIUM ITERATIONS.

 TIME INCREMENT COMPLETED  0.338    ,  FRACTION OF STEP COMPLETED  0.913    
 STEP TIME COMPLETED       0.913    ,  TOTAL TIME COMPLETED         3.91    


  INCREMENT     6 STARTS. ATTEMPT NUMBER  1, TIME INCREMENT  8.750E-02

  NUMBER OF EQUATIONS =     17738     NUMBER OF FLOATING PT. OPERATIONS =  4.19E+07

  USING THE DIRECT SOLVER WITH   4 PROCESSORS

     CHECK POINT   START OF SOLVER    

     CHECK POINT  END OF SOLVER       

       ELAPSED USER TIME (SEC)      =  0.30000    
       ELAPSED SYSTEM TIME (SEC)    =  0.10000    
       ELAPSED TOTAL CPU TIME (SEC) =  0.40000    
       ELAPSED WALLCLOCK TIME (SEC) =          0

               CONVERGENCE CHECKS FOR EQUILIBRIUM ITERATION     1


 AVERAGE FORCE                      4.784E+07   TIME AVG. FORCE       4.780E+07
 LARGEST RESIDUAL FORCE            -0.441       AT NODE     200005   DOF  1
   INSTANCE: SUSPENSIONBRIDGE                                                                
 LARGEST INCREMENT OF DISP.        -1.537E-04   AT NODE      20114   DOF  3
   INSTANCE: SUSPENSIONBRIDGE                                                                
 LARGEST CORRECTION TO DISP.        1.677E-08   AT NODE      10106   DOF  3
   INSTANCE: SUSPENSIONBRIDGE                                                                
          THE FORCE     EQUILIBRIUM RESPONSE WAS LINEAR IN THIS INCREMENT

 AVERAGE MOMENT                     1.541E+07   TIME AVG. MOMENT      1.562E+07
 LARGEST RESIDUAL MOMENT             2.21       AT NODE     200005   DOF  6
   INSTANCE: SUSPENSIONBRIDGE                                                                
 LARGEST INCREMENT OF ROTATION      5.112E-06   AT NODE      20105   DOF  5
   INSTANCE: SUSPENSIONBRIDGE                                                                
 LARGEST CORRECTION TO ROTATION    -6.298E-08   AT NODE      20109   DOF  4
   INSTANCE: SUSPENSIONBRIDGE                                                                
 ESTIMATE OF ROTATION CORRECTION   -1.211E-08
 MOMENT    EQUILIB. ACCEPTED BASED ON SMALL RESIDUAL AND ESTIMATED CORRECTION

 ITERATION SUMMARY FOR THE INCREMENT:   1 TOTAL ITERATIONS, OF WHICH
   0 ARE SEVERE DISCONTINUITY ITERATIONS AND  1 ARE EQUILIBRIUM ITERATIONS.

 TIME INCREMENT COMPLETED  8.750E-02,  FRACTION OF STEP COMPLETED   1.00    
 STEP TIME COMPLETED        1.00    ,  TOTAL TIME COMPLETED         4.00    
1

   Abaqus 3DEXPERIENCE R2017x                                  Date 10-Apr-2023   Time 13:23:50
   For use by NTNU NORGES TEKNISK NATURVITENSKAPELIGE UNIVERSITET under license from Dassault Systemes or its subsidiary.

                                                                                 
                                                                                 
 STEP    5     INCREMENT     1     STEP TIME    0.00    


                        S T E P       5     C A L C U L A T I O N   O F   E I G E N V A L U E S

                                            F O R   N A T U R A L   F R E Q U E N C I E S



                                                                                          

     THE LANCZOS EIGENSOLVER IS USED FOR THIS ANALYSIS
     Abaqus WILL COMPUTE UNCOUPLED
      STRUCTURAL AND ACOUSTIC MODES
     NUMBER OF EIGENVALUES                    100
     HIGHEST FREQUENCY OF INTEREST                  1.00000E+18
     MAXIMUM NUMBER OF STEPS WITHIN RUN               35
     BLOCK SIZE FOR LANCZOS PROCEDURE                  7
     THE EIGENVECTORS ARE SCALED SO THAT 
      THE LARGEST DISPLACEMENT ENTRY IN EACH VECTOR
      IS UNITY
                              INITIAL STRESS AND DISPLACEMENT EFFECTS ARE
                              INCLUDED IN THE STIFFNESS MATRIX

     THIS IS A LINEAR PERTURBATION STEP.
     ALL LOADS ARE DEFINED AS CHANGE IN LOAD TO THE REFERENCE STATE

          LARGE DISPLACEMENT THEORY WILL BE USED

     EXTRAPOLATION WILL NOT BE USED

     CHARACTERISTIC ELEMENT LENGTH      15.7    

     DETAILS REGARDING ACTUAL SOLUTION WAVEFRONT REQUESTED

     DETAILED OUTPUT OF DIAGNOSTICS TO DATABASE REQUESTED

     PRINT OF INCREMENT NUMBER, TIME, ETC., TO THE MESSAGE FILE EVERY     1  INCREMENTS

 ***NOTE: SHARED MEMORY EXECUTION OF THE ELEMENT CALCULATIONS HAS BEEN TURNED 
          OFF DUE TO THE FOLLOWING FEATURE: SIM ARCHITECTURE IS NOT ACTIVE

     ELEMENT OPERATIONS WILL NOT BE CARRIED OUT IN PARALLEL

     COLLECTING STEP CONSTRAINT INFORMATION FOR OVERCONSTRAINT CHECKS

     CHECK POINT   START OF SOLVER    
  
 COMPUTER PRECISION USED BY ABAQUS      2.22045e-016
 CONVERGENCE CRITERION FOR LANCZOS RUN  1.81899e-012
  
 NUMBER OF EQUATIONS                                                           17738
 NUMBER OF UNRESTRAINED DEGREES OF FREEDOM                                     17650
 HEURISTIC SCALE FOR THE FIRST NONZERO EIGENVALUES (PROBLEM SCALE)  5.16018e-005
 INITIAL SHIFT VALUE                                                0.00000e+000
  
 NUMBER OF CPUS USED BY DIRECT SOLVER     4
  
 NUMBER OF NEGATIVE EIGENVALUES     0
 NUMBER OF POSITIVE EIGENVALUES     17738
 NUMBER OF NEGATIVE EIGENVALUES NOT ASSOCIATED WITH LAGRANGE MULTIPLIERS     0
 NUMBER OF LAGRANGE MULTIPLIERS     0
  
 COMPUTATIONAL INTERVAL FOR THE INITIAL LANCZOS RUN
 
 EIGENVALUES NEEDED TO THE RIGHT OF SHIFT VALUE  100
 EIGENVALUES NEEDED TO THE LEFT OF SHIFT VALUE     0
 RIGHT BOUNDARY OF THE COMPUTATIONAL INTERVAL  3.95574e+037
 LEFT BOUNDARY OF THE COMPUTATIONAL INTERVAL  -3.95574e+037
  
 LANCZOS RUN TERMINATED. NUMBER OF STEPS:   21
 TERMINATION BASED ON THE COST-PER-EIGENVALUE CRITERION
  
 NUMBER OF ACCEPTED EIGENVALUES   52
  
 ACCEPTED EIGENVALUES
  4.01928e-002 1.72593e-001 2.81975e-001 2.83047e-001 4.52482e-001 5.36303e-001
  5.44421e-001 6.22547e-001 7.26366e-001 7.47550e-001 7.66801e-001 7.68349e-001
  8.06110e-001 9.42196e-001 9.93522e-001 1.10171e+000 1.19827e+000 1.26986e+000
  1.38868e+000 1.41197e+000 1.51346e+000 1.56524e+000 1.86540e+000 2.02683e+000
  2.32822e+000 2.38902e+000 2.40571e+000 2.41740e+000 2.54685e+000 2.69384e+000
  2.98691e+000 3.03864e+000 3.15984e+000 3.15985e+000 3.18594e+000 3.24060e+000
  3.24172e+000 3.24446e+000 3.24793e+000 3.25065e+000 3.61743e+000 3.97747e+000
  4.05495e+000 4.31780e+000 4.33045e+000 4.89421e+000 4.93788e+000 5.05060e+000
  5.23253e+000 5.26912e+000 5.34546e+000 6.14829e+000
  
 FACTORIZATION WITH NEW SHIFT VALUE IS REQUIRED
  
 TRUST INTERVALS AFTER LANCZOS RUN AND COMPRESSION
  
 NUMBER OF TRUST INTERVALS    1
  
 -------------------------------------------------------------------------------------
 | KEY | INSIDE |      INERTIAS     |  SENTINELS  |   OUTSIDE   |  NEED TO FIND      |
 |      ENDS OF INTERVAL     |     ENDS OF SENTINEL      |   COMPUTATIONAL INTERVAL  |
 -------------------------------------------------------------------------------------
 |  +  |      0 |        0        0 |     0     0 |     0     0 |      0   100       |
 |-3.95574e+037 0.00000e+000 |-3.95574e+037 0.00000e+000 |-3.95574e+037 3.95574e+037 |
 -------------------------------------------------------------------------------------
  
 DATA FOR CHOOSING SHIFT
  
 NUMBER OF EIGENVALUES NEEDED IN THE PRIMARY TRUST INTERVAL  100
  
 NUMBER OF MODES FORMING SENTINEL TO THE RIGHT   51
 SHIFT RIGHT        2.43799e+001
  
 NUMBER OF MODES FORMING SENTINEL TO THE LEFT     0
 SHIFT LEFT         0.00000e+000
  
 SHIFTING TO THE RIGHT DIRECTION
 NEW SHIFT          2.43799e+001
  
 NUMBER OF NEGATIVE EIGENVALUES   111
 NUMBER OF POSITIVE EIGENVALUES     17627
 NUMBER OF NEGATIVE EIGENVALUES NOT ASSOCIATED WITH LAGRANGE MULTIPLIERS   111
 NUMBER OF LAGRANGE MULTIPLIERS     0
  
 NEW LANCZOS RUN IS REQUIRED
  
 TYPE OF RUN: EXPAND THE TRUST INTERVAL TO THE RIGHT
 EIGENVALUES NEEDED TO THE RIGHT     0
 EIGENVALUES NEEDED TO THE LEFT     59
 RIGHT BOUNDARY OF THE INTERVAL  2.43799e+001
 LEFT BOUNDARY OF THE INTERVAL   5.34546e+000
  
 TRUST INTERVALS AFTER FACTORIZATION AND COMPRESSION
  
 -------------------------------------------------------------------------------------
 | KEY | INSIDE |      INERTIAS     |  SENTINELS  |   OUTSIDE   |  NEED TO FIND      |
 |      ENDS OF INTERVAL     |     ENDS OF SENTINEL      |   COMPUTATIONAL INTERVAL  |
 -------------------------------------------------------------------------------------
 |  +  |      0 |        0        0 |     0    51 |     0    52 |      0   100       |
 |-3.95574e+037 0.00000e+000 |-3.95574e+037 5.34546e+000 |-3.95574e+037 3.95574e+037 |
 -------------------------------------------------------------------------------------
 |  -  |      0 |      111      111 |     0     0 |     0     0 |     59     0       |
 | 2.43799e+001 2.43799e+001 | 2.43799e+001 2.43799e+001 | 5.34546e+000 2.43799e+001 |
 -------------------------------------------------------------------------------------
  
 LANCZOS RUN TERMINATED. NUMBER OF STEPS:   17
 TERMINATION BASED ON THE COST-PER-EIGENVALUE CRITERION
  
 NUMBER OF ACCEPTED EIGENVALUES   63
  
 ACCEPTED EIGENVALUES
  4.01928e-002 1.72593e-001 2.81975e-001 2.83047e-001 4.52482e-001 5.36303e-001
  5.44421e-001 6.22547e-001 7.26366e-001 7.47550e-001 7.66801e-001 7.68349e-001
  8.06110e-001 9.42196e-001 9.93522e-001 1.10171e+000 1.19827e+000 1.26986e+000
  1.38868e+000 1.41197e+000 1.51346e+000 1.56524e+000 1.86540e+000 2.02683e+000
  2.32822e+000 2.38902e+000 2.40571e+000 2.41740e+000 2.54685e+000 2.69384e+000
  2.98691e+000 3.03864e+000 3.15984e+000 3.15985e+000 3.18594e+000 3.24060e+000
  3.24172e+000 3.24446e+000 3.24793e+000 3.25065e+000 3.61743e+000 3.97747e+000
  4.05495e+000 4.31780e+000 4.33045e+000 4.89421e+000 4.93788e+000 5.05060e+000
  5.23253e+000 5.26912e+000 5.34546e+000 6.14829e+000 1.90069e+001 1.94399e+001
  2.08821e+001 2.13342e+001 2.19161e+001 2.24702e+001 2.33984e+001 2.34649e+001
  2.34932e+001 2.35536e+001 2.35618e+001
  
 FACTORIZATION WITH NEW SHIFT VALUE IS REQUIRED
  
 TRUST INTERVALS AFTER LANCZOS RUN AND COMPRESSION
  
 NUMBER OF TRUST INTERVALS    2
  
 -------------------------------------------------------------------------------------
 | KEY | INSIDE |      INERTIAS     |  SENTINELS  |   OUTSIDE   |  NEED TO FIND      |
 |      ENDS OF INTERVAL     |     ENDS OF SENTINEL      |   COMPUTATIONAL INTERVAL  |
 -------------------------------------------------------------------------------------
 |  +  |      0 |        0        0 |     0    51 |     0    52 |      0   100       |
 |-3.95574e+037 0.00000e+000 |-3.95574e+037 5.34546e+000 |-3.95574e+037 3.95574e+037 |
 -------------------------------------------------------------------------------------
 |  -  |      0 |      111      111 |     0     0 |     0     0 |     59     0       |
 | 2.43799e+001 2.43799e+001 | 2.43799e+001 2.43799e+001 | 5.34546e+000 2.43799e+001 |
 -------------------------------------------------------------------------------------
  
 DATA FOR CHOOSING SHIFT
  
 NUMBER OF EIGENVALUES NEEDED IN THE PRIMARY TRUST INTERVAL  100
  
 NUMBER OF MODES FORMING SENTINEL TO THE RIGHT    0
 SHIFT RIGHT        2.43799e+001
  
 NUMBER OF MODES FORMING SENTINEL TO THE LEFT    11
 SHIFT LEFT         1.36876e+001
  
 SHIFT IS DETERMINED IN ORDER TO CLOSE GAP BETWEEN TRUST INTERVALS
 NEW SHIFT          1.00797e+001
  
 NUMBER OF NEGATIVE EIGENVALUES    67
 NUMBER OF POSITIVE EIGENVALUES     17671
 NUMBER OF NEGATIVE EIGENVALUES NOT ASSOCIATED WITH LAGRANGE MULTIPLIERS    67
 NUMBER OF LAGRANGE MULTIPLIERS     0
  
 NEW LANCZOS RUN IS REQUIRED
  
 TYPE OF RUN: FILLING GAPS
 EIGENVALUES NEEDED TO THE RIGHT    33
 EIGENVALUES NEEDED TO THE LEFT     15
 RIGHT BOUNDARY OF THE INTERVAL  1.90069e+001
 LEFT BOUNDARY OF THE INTERVAL   5.34546e+000
  
 TRUST INTERVALS AFTER FACTORIZATION AND COMPRESSION
  
 -------------------------------------------------------------------------------------
 | KEY | INSIDE |      INERTIAS     |  SENTINELS  |   OUTSIDE   |  NEED TO FIND      |
 |      ENDS OF INTERVAL     |     ENDS OF SENTINEL      |   COMPUTATIONAL INTERVAL  |
 -------------------------------------------------------------------------------------
 |  +  |      0 |        0        0 |     0    51 |     0    52 |      0   100       |
 |-3.95574e+037 0.00000e+000 |-3.95574e+037 5.34546e+000 |-3.95574e+037 3.95574e+037 |
 -------------------------------------------------------------------------------------
 |  -  |      0 |      111      111 |    11     0 |    11     0 |     59     0       |
 | 2.43799e+001 2.43799e+001 | 1.90069e+001 2.43799e+001 | 5.34546e+000 2.43799e+001 |
 -------------------------------------------------------------------------------------
 |  -  |      0 |       67       67 |     0     0 |     0     0 |     15    33       |
 | 1.00797e+001 1.00797e+001 | 1.00797e+001 1.00797e+001 | 5.34546e+000 1.90069e+001 |
 -------------------------------------------------------------------------------------
  
 LANCZOS RUN TERMINATED. NUMBER OF STEPS:   14
 ALL THE EIGENVALUES REQUESTED ON THIS LANCZOS RUN ARE FOUND
  
 NUMBER OF ACCEPTED EIGENVALUES  111
  
 ACCEPTED EIGENVALUES
  4.01928e-002 1.72593e-001 2.81975e-001 2.83047e-001 4.52482e-001 5.36303e-001
  5.44421e-001 6.22547e-001 7.26366e-001 7.47550e-001 7.66801e-001 7.68349e-001
  8.06110e-001 9.42196e-001 9.93522e-001 1.10171e+000 1.19827e+000 1.26986e+000
  1.38868e+000 1.41197e+000 1.51346e+000 1.56524e+000 1.86540e+000 2.02683e+000
  2.32822e+000 2.38902e+000 2.40571e+000 2.41740e+000 2.54685e+000 2.69384e+000
  2.98691e+000 3.03864e+000 3.15984e+000 3.15985e+000 3.18594e+000 3.24060e+000
  3.24172e+000 3.24446e+000 3.24793e+000 3.25065e+000 3.61743e+000 3.97747e+000
  4.05495e+000 4.31780e+000 4.33045e+000 4.89421e+000 4.93788e+000 5.05060e+000
  5.23253e+000 5.26912e+000 5.34546e+000 5.83667e+000 6.14829e+000 6.67368e+000
  6.69039e+000 7.56235e+000 7.92629e+000 8.01708e+000 8.19898e+000 8.26681e+000
  8.27770e+000 8.31857e+000 8.51318e+000 8.70486e+000 9.54371e+000 9.85637e+000
  9.96417e+000 1.06483e+001 1.11950e+001 1.12156e+001 1.18291e+001 1.18427e+001
  1.22729e+001 1.23220e+001 1.25467e+001 1.25507e+001 1.25514e+001 1.26187e+001
  1.26199e+001 1.26266e+001 1.26271e+001 1.26735e+001 1.31293e+001 1.32078e+001
  1.38655e+001 1.38727e+001 1.39281e+001 1.39284e+001 1.41054e+001 1.45293e+001
  1.48474e+001 1.51113e+001 1.60512e+001 1.60697e+001 1.69756e+001 1.70530e+001
  1.76104e+001 1.76617e+001 1.82483e+001 1.84135e+001 1.90069e+001 1.94399e+001
  2.08821e+001 2.13342e+001 2.19161e+001 2.24702e+001 2.33984e+001 2.34649e+001
  2.34932e+001 2.35536e+001 2.35618e+001
  
 THE REQUIRED NUMBER OF EIGENVALUES IS FOUND
  
 FINAL TRUST INTERVALS AFTER SUCCESSFUL LANCZOS RUN
  
 NUMBER OF TRUST INTERVALS    1
  
 -------------------------------------------------------------------------------------
 | KEY | INSIDE |      INERTIAS     |  SENTINELS  |   OUTSIDE   |  NEED TO FIND      |
 |      ENDS OF INTERVAL     |     ENDS OF SENTINEL      |   COMPUTATIONAL INTERVAL  |
 -------------------------------------------------------------------------------------
 |  +  |    111 |        0      111 |     0     0 |     0     0 |      0     0       |
 |-3.95574e+037 2.43799e+001 |-3.95574e+037 2.43799e+001 |-3.95574e+037 2.43799e+001 |
 -------------------------------------------------------------------------------------
  
 FIRST EIGENVALUE REQUESTED BY THE USER     1
  
 EIGENVALUES REQUESTED BY THE USER
  4.01928e-002 1.72593e-001 2.81975e-001 2.83047e-001 4.52482e-001 5.36303e-001
  5.44421e-001 6.22547e-001 7.26366e-001 7.47550e-001 7.66801e-001 7.68349e-001
  8.06110e-001 9.42196e-001 9.93522e-001 1.10171e+000 1.19827e+000 1.26986e+000
  1.38868e+000 1.41197e+000 1.51346e+000 1.56524e+000 1.86540e+000 2.02683e+000
  2.32822e+000 2.38902e+000 2.40571e+000 2.41740e+000 2.54685e+000 2.69384e+000
  2.98691e+000 3.03864e+000 3.15984e+000 3.15985e+000 3.18594e+000 3.24060e+000
  3.24172e+000 3.24446e+000 3.24793e+000 3.25065e+000 3.61743e+000 3.97747e+000
  4.05495e+000 4.31780e+000 4.33045e+000 4.89421e+000 4.93788e+000 5.05060e+000
  5.23253e+000 5.26912e+000 5.34546e+000 5.83667e+000 6.14829e+000 6.67368e+000
  6.69039e+000 7.56235e+000 7.92629e+000 8.01708e+000 8.19898e+000 8.26681e+000
  8.27770e+000 8.31857e+000 8.51318e+000 8.70486e+000 9.54371e+000 9.85637e+000
  9.96417e+000 1.06483e+001 1.11950e+001 1.12156e+001 1.18291e+001 1.18427e+001
  1.22729e+001 1.23220e+001 1.25467e+001 1.25507e+001 1.25514e+001 1.26187e+001
  1.26199e+001 1.26266e+001 1.26271e+001 1.26735e+001 1.31293e+001 1.32078e+001
  1.38655e+001 1.38727e+001 1.39281e+001 1.39284e+001 1.41054e+001 1.45293e+001
  1.48474e+001 1.51113e+001 1.60512e+001 1.60697e+001 1.69756e+001 1.70530e+001
  1.76104e+001 1.76617e+001 1.82483e+001 1.84135e+001
  
 EIGENVALUE EXTRACTION USING THE LANCZOS EIGENSOLVER IS COMPLETE
 NUMBER OF LANCZOS RUNS       :   3
 NUMBER OF LANCZOS STEPS      :  52
 NUMBER OF FACTORIZATIONS     :   3
 NUMBER OF BACK SUBSTITUTIONS :  53

     CHECK POINT  END OF SOLVER       

       ELAPSED USER TIME (SEC)      =   12.100    
       ELAPSED SYSTEM TIME (SEC)    =   1.7000    
       ELAPSED TOTAL CPU TIME (SEC) =   13.800    
       ELAPSED WALLCLOCK TIME (SEC) =          8


          THE ANALYSIS HAS BEEN COMPLETED



     ANALYSIS SUMMARY:
     TOTAL OF         82  INCREMENTS
                       2  CUTBACKS IN AUTOMATIC INCREMENTATION
                     183  ITERATIONS INCLUDING CONTACT ITERATIONS IF PRESENT
                     239  PASSES THROUGH THE EQUATION SOLVER OF WHICH 
                     186  INVOLVE MATRIX DECOMPOSITION, INCLUDING
                       0  DECOMPOSITION(S) OF THE MASS MATRIX
                       1  REORDERING OF EQUATIONS TO MINIMIZE WAVEFRONT
                       0  ADDITIONAL RESIDUAL EVALUATIONS FOR LINE SEARCHES
                       0  ADDITIONAL OPERATOR EVALUATIONS FOR LINE SEARCHES
                     201  WARNING MESSAGES DURING USER INPUT PROCESSING
                       7  WARNING MESSAGES DURING ANALYSIS
                       0  ANALYSIS WARNINGS ARE NUMERICAL PROBLEM MESSAGES
                       6  ANALYSIS WARNINGS ARE NEGATIVE EIGENVALUE MESSAGES
                       0  ERROR MESSAGES



     JOB TIME SUMMARY
       USER TIME (SEC)      =   83.900    
       SYSTEM TIME (SEC)    =   12.500    
       TOTAL CPU TIME (SEC) =   96.400    
       WALLCLOCK TIME (SEC) =         51
