**********
** Parametrized suspension bridge model
** Model input generated 2023-04-11T10:21:29
**********
**********
** Part of abaqustools package
** Oyvind Wiig Petersen, NTNU
**********
**
**********
** 
** User parameter values:
** 
** abaqus.foldername=C:\Cloud\OD_OWP\Work\Python\Github\abaqustools\suspensionbridge_example\sulafjorden
** abaqus.inputname=Sulafjorden_test
** abaqus.jobname=Sulafjorden_test
** abaqus.partname=SuspensionBridge
** abaqus.assemblyname=AssemblySuspensionBridge
** abaqus.runjob=True
** abaqus.cmd=abaqus
** abaqus.cpus=4.00000e+00
** abaqus.restart=False
** abaqus.halt_error=True
** abaqus.foldername_export=C:/Cloud/OD_OWP/Work/Python/Github/abaqustools/odbexport
** 
** step.time=list
** 
** cable.cs.A=6.00000e-01
** cable.cs.I11=2.86479e-04
** cable.cs.I22=2.86479e-04
** cable.cs.I12=0.00000e+00
** cable.cs.It=5.72958e-04
** cable.cs.rho=7.85000e+03
** cable.cs.E=2.00000e+11
** cable.cs.G=8.00000e+10
** cable.cs.sigma_target=nan
** cable.cs=unknown
** cable.normaldir=0.00000e+00, 1.00000e+00, 0.00000e+00
** cable.eltype=B31
** cable.meshsize_approx=nan
** cable.N_element=5.00000e+01
** cable.tempsupport=True
** cable.N_tempsupport=1.10000e+01
** cable.clamp=True
** cable.N_clamp=5.00000e+00
** cable.F_clamp=6.00000e+05
** cable.polycoeff_hanger_adjust=nan
** cable.nsmass=5.00000e+01
** cable.nodenum_base=1.00000e+04, 2.00000e+04
** cable.elnum_base=1.00000e+04, 2.00000e+04
** 
** bridgedeck.cs.A=7.30000e-01, 7.30000e-01
** bridgedeck.cs.I11=6.40000e-01, 6.40000e-01
** bridgedeck.cs.I22=1.71400e+01, 1.71400e+01
** bridgedeck.cs.I12=0.00000e+00, 0.00000e+00
** bridgedeck.cs.It=1.85000e+00, 1.85000e+00
** bridgedeck.cs.rho=0.00000e+00, 0.00000e+00
** bridgedeck.cs.E=2.10000e+11, 2.10000e+11
** bridgedeck.cs.G=8.10000e+10, 8.10000e+10
** bridgedeck.cs.sc1=2.13000e+00, -2.13000e+00
** bridgedeck.cs.sc2=-2.00000e-01, -2.00000e-01
** bridgedeck.cs=unknown
** bridgedeck.inertia.m=9.30000e+03, 9.30000e+03
** bridgedeck.inertia.x1=0.00000e+00, 0.00000e+00
** bridgedeck.inertia.x2=0.00000e+00, 0.00000e+00
** bridgedeck.inertia.alpha=0.00000e+00, 0.00000e+00
** bridgedeck.inertia.I11=6.40000e+04, 6.40000e+04
** bridgedeck.inertia.I22=1.20000e+06, 1.20000e+06
** bridgedeck.inertia.I12=0.00000e+00, 0.00000e+00
** bridgedeck.inertia=unknown
** bridgedeck.gapbeam.type=box
** bridgedeck.gapbeam.h=2.00000e+00
** bridgedeck.gapbeam.b=2.00000e+00
** bridgedeck.gapbeam.t=2.00000e-02
** bridgedeck.gapbeam=unknown
** bridgedeck.N_box=2.00000e+00
** bridgedeck.normaldir=0.00000e+00, 1.00000e+00, 0.00000e+00
** bridgedeck.eltype=B31
** bridgedeck.meshsize=4.00000e+00
** bridgedeck.shell=True
** bridgedeck.nodenum_base=1.00000e+03, 2.00000e+03, 3.00000e+03, 4.00000e+03, 5.00000e+03
** bridgedeck.elnum_base=1.00000e+03, 2.00000e+03
** bridgedeck.nodenum_base_outer=1.10000e+04, 1.20000e+04
** bridgedeck.elnum_base_connlat=3.00000e+03, 4.00000e+03, 5.00000e+03, 6.00000e+03, 7.00000e+03, 8.00000e+03
** 
** hanger.cs.A=4.00000e-03
** hanger.cs.I11=1.00000e-07
** hanger.cs.I22=1.00000e-07
** hanger.cs.I12=0.00000e+00
** hanger.cs.It=1.00000e-07
** hanger.cs.rho=7.85000e+03
** hanger.cs.E=1.60000e+11
** hanger.cs.G=6.00000e+10
** hanger.cs=unknown
** hanger.normaldir=0.00000e+00, 1.00000e+00, 0.00000e+00
** hanger.eltype=B31
** hanger.elnum_base=8.00000e+04, 9.00000e+04
** 
** tower.cs.type=box
** tower.cs.h_vec=1.45000e+01, 1.05000e+01, 8.50000e+00, 8.50000e+00
** tower.cs.b_vec=1.25000e+01, 9.50000e+00, 8.00000e+00, 8.00000e+00
** tower.cs.t_vec=1.50000e+00, 1.50000e+00, 1.50000e+00, 1.50000e+00
** tower.cs.z_vec=3.00000e+01, 7.50000e+01, 3.91000e+02, 4.00000e+02
** tower.cs.rho=2.50000e+03
** tower.cs.E=3.50000e+10
** tower.cs.v=2.00000e-01
** tower.cs=unknown
** tower.normaldir=0.00000e+00, 1.00000e+00, 0.00000e+00
** tower.eltype=B31
** tower.F_pullback_south=-3.71460e+06
** tower.F_pullback_north=3.71460e+06
** tower.z_crossbeam_south=5.15000e+01, 1.75500e+02, 2.45500e+02, 3.15500e+02, 3.85500e+02
** tower.z_crossbeam_north=5.15000e+01, 1.75500e+02, 2.45500e+02, 3.15500e+02, 3.85500e+02
** tower.h_crossbeam=8.00000e+00, 8.00000e+00, 8.00000e+00, 8.00000e+00, 8.00000e+00
** tower.b_crossbeam=5.00000e+00, 5.00000e+00, 5.00000e+00, 5.00000e+00, 5.00000e+00
** tower.t_crossbeam=1.00000e+00, 1.00000e+00, 1.00000e+00, 1.00000e+00, 1.00000e+00
** tower.N_element=nan
** tower.meshsize=5.00000e+00
** tower.nodenum_base=1.00000e+05, 1.10000e+05, 2.00000e+05, 2.10000e+05
** tower.elnum_base=1.00000e+05, 1.10000e+05, 2.00000e+05, 2.10000e+05
** tower.K_south=9.57371e+05
** tower.K_north=9.57371e+05
** tower.K_est=3.06419e+06
** 
** bearing.type=tri
** bearing.stiffness_south=3.00000e+07, 1.00000e+12, 1.00000e+06, 1.00000e+00, 1.00000e+00, 1.00000e+00
** bearing.stiffness_north=3.00000e+07, 1.00000e+12, 1.00000e+06, 1.00000e+00, 1.00000e+00, 1.00000e+00
** bearing.nodenum_base=4.00000e+05
** bearing.elnum_base=4.00000e+05
** 
** sadle.stiffness=1.00000e+12
** sadle.elnum_base=3.00000e+05
** 
** geo.L_bridgedeck=2.80000e+03
** geo.gap=2.99740e+01
** geo.dx_hanger=2.40000e+01
** geo.dx_endpiece_max=2.40000e+01
** geo.dx_pullback_south=-3.88000e+00
** geo.dx_pullback_north=3.88000e+00
** geo.z_cog_south=5.75000e+01
** geo.z_cog_north=5.75000e+01
** geo.z_cog_midspan=7.85000e+01
** geo.dz_cog_midspan_deflection=2.50000e+01
** geo.dz_cog_south_deflection=1.30000e+00
** geo.dz_cog_north_deflection=1.30000e+00
** geo.z_cable_top_south=4.00100e+02
** geo.z_cable_top_north=4.00100e+02
** geo.z_cable_midspan=8.10000e+01
** geo.dz_cable_deflection=3.20000e+01
** geo.dy_cable_anch_south=5.20000e+01
** geo.dy_cable_top_south=4.70000e+01
** geo.dy_cable_midspan=4.70000e+01
** geo.dy_cable_top_north=4.70000e+01
** geo.dy_cable_anch_north=5.20000e+01
** geo.dy_cog_hanger=8.01300e+00
** geo.dz_cog_hanger=3.32400e-01
** geo.dy_cog_inner=7.98700e+00
** geo.dz_cog_inner=-5.32600e-01
** geo.dy_pendulum=2.50000e+00
** geo.dz_slider=-1.50000e+00
** geo.dx_bearing_base=1.00000e+00
** geo.z_tower_base_south=3.00000e+01
** geo.z_tower_base_north=3.00000e+01
** geo.z_tower_top_south=4.00000e+02
** geo.z_tower_top_north=4.00000e+02
** geo.dy_tower_base_south=5.20000e+01
** geo.dy_tower_base_north=5.20000e+01
** geo.dy_tower_top_south=4.70000e+01
** geo.dy_tower_top_north=4.70000e+01
** geo.dx_tower_anch_south=5.00000e+02
** geo.dx_tower_anch_north=5.00000e+02
** geo.z_anch_south=1.00000e+02
** geo.z_anch_north=1.00000e+02
** geo.x_tower_south=-1.40000e+03
** geo.x_tower_north=1.40000e+03
** geo.y_bearing_box1=list
** geo.y_bearing_box2=list
** 
** step.time=list
** 
** modal.N_modes=1.00000e+02
** modal.normalization=displacement
**********
***********************************************************
** MATERIALS
***********************************************************
*MATERIAL, NAME=CONCRETE
*ELASTIC
3.500e+10, 0.200
*DENSITY
2.500e+03
**
**
*MATERIAL, NAME=SOFT
*ELASTIC
1.000e-06, 0.300
*DENSITY
1.000e-12
**
**
*MATERIAL, NAME=STEEL
*ELASTIC
2.100e+11, 0.300
*DENSITY
7.850e+03
**
**
*PART, NAME=SUSPENSIONBRIDGE
**
***********************************************************
** CABLE
***********************************************************
*NODE,NSET=CABLE_MAIN_EAST
10001,-1900.00000,-26.00000,100.00000
10002,-1890.07760,-25.95000,106.00200
10003,-1880.15520,-25.90000,112.00400
10004,-1870.23280,-25.85000,118.00600
10005,-1860.31040,-25.80000,124.00800
10006,-1850.38800,-25.75000,130.01000
10007,-1840.46560,-25.70000,136.01200
10008,-1830.54320,-25.65000,142.01400
10009,-1820.62080,-25.60000,148.01600
10010,-1810.69840,-25.55000,154.01800
10011,-1800.77600,-25.50000,160.02000
10012,-1790.85360,-25.45000,166.02200
10013,-1780.93120,-25.40000,172.02400
10014,-1771.00880,-25.35000,178.02600
10015,-1761.08640,-25.30000,184.02800
10016,-1751.16400,-25.25000,190.03000
10017,-1741.24160,-25.20000,196.03200
10018,-1731.31920,-25.15000,202.03400
10019,-1721.39680,-25.10000,208.03600
10020,-1711.47440,-25.05000,214.03800
** ... 199 like lines cut
**
**
*NODE,NSET=CABLE_MAIN_WEST
20001,-1900.00000,26.00000,100.00000
20002,-1890.07760,25.95000,106.00200
20003,-1880.15520,25.90000,112.00400
20004,-1870.23280,25.85000,118.00600
20005,-1860.31040,25.80000,124.00800
20006,-1850.38800,25.75000,130.01000
20007,-1840.46560,25.70000,136.01200
20008,-1830.54320,25.65000,142.01400
20009,-1820.62080,25.60000,148.01600
20010,-1810.69840,25.55000,154.01800
20011,-1800.77600,25.50000,160.02000
20012,-1790.85360,25.45000,166.02200
20013,-1780.93120,25.40000,172.02400
20014,-1771.00880,25.35000,178.02600
20015,-1761.08640,25.30000,184.02800
20016,-1751.16400,25.25000,190.03000
20017,-1741.24160,25.20000,196.03200
20018,-1731.31920,25.15000,202.03400
20019,-1721.39680,25.10000,208.03600
20020,-1711.47440,25.05000,214.03800
** ... 199 like lines cut
**
**
*ELEMENT, TYPE=B31, ELSET=CABLE_MAIN_EAST
10001, 10001, 10002
10002, 10002, 10003
10003, 10003, 10004
10004, 10004, 10005
10005, 10005, 10006
10006, 10006, 10007
10007, 10007, 10008
10008, 10008, 10009
10009, 10009, 10010
10010, 10010, 10011
10011, 10011, 10012
10012, 10012, 10013
10013, 10013, 10014
10014, 10014, 10015
10015, 10015, 10016
10016, 10016, 10017
10017, 10017, 10018
10018, 10018, 10019
10019, 10019, 10020
10020, 10020, 10021
** ... 198 like lines cut
**
**
*ELEMENT, TYPE=B31, ELSET=CABLE_MAIN_WEST
20001, 20001, 20002
20002, 20002, 20003
20003, 20003, 20004
20004, 20004, 20005
20005, 20005, 20006
20006, 20006, 20007
20007, 20007, 20008
20008, 20008, 20009
20009, 20009, 20010
20010, 20010, 20011
20011, 20011, 20012
20012, 20012, 20013
20013, 20013, 20014
20014, 20014, 20015
20015, 20015, 20016
20016, 20016, 20017
20017, 20017, 20018
20018, 20018, 20019
20019, 20019, 20020
20020, 20020, 20021
** ... 182 like lines cut
